New LoadShape.A3A npts=24 interval=1
~ mult=(0.9344027063753766 0.937072971406308 0.9301549894044645 0.927570248876303 0.913772295762736 0.8751247232332063 0.8613362728421692 0.8750296960079064 0.8919255366662548 0.9001738998222991 0.9072439253846227 0.8963347999201772 0.9009721285148196 0.8965343570933072 0.8966103788735473 0.8987769996103885 0.907662045175943 0.915482785818137 0.9283209639561735 0.9190748149344788 0.9565535525928179 0.9742191137760967 0.9931010234432165 1.0)
New LoadShape.A3 npts=24 interval=1
~ mult=(0.9877425944841675 0.982635342185904 0.9417773237997957 0.933605720122574 0.9305413687436158 0.9295199182839631 0.9346271705822267 0.978549540347293 0.978549540347293 0.9836567926455567 0.958120531154239 0.9438202247191011 0.9662921348314607 0.9581205311542388 0.9448416751787537 0.9622063329928495 0.9448416751787537 0.9448416751787537 0.9489274770173645 0.9662921348314607 0.9489274770173645 0.9591419816138915 0.9846782431052091 1.0)
New LoadShape.A2 npts=24 interval=1
~ mult=(1.0 0.9937147698022221 0.9824899807761233 0.9928480662083348 0.9882147860936429 0.9611254113583786 0.9393796226906911 0.9549151216969143 0.9746570655892607 0.9540125769769638 0.9657261086311947 0.9586295656707178 0.9512593268384868 0.9398097162034471 0.958505750871591 0.9572350200384477 0.9575087159102016 0.9518393014238701 0.9465348147665439 0.9708057736795802 0.9638134958131047 0.96662213678277 0.9313805350102635 0.9547782737610374)
New LoadShape.COM1_1 npts=24 interval=1
~ mult=(0.9605382980876251 0.9636749974704037 0.9670140645552967 0.9685318223211574 0.9669128807042396 0.9685318223211574 0.9636749974704037 0.9622584235556004 0.9606394819386824 0.9656986744915511 1.0 0.962966710513002 0.9526459577051503 0.9613477688960841 0.9590205403217648 0.9557826570879286 0.9608418496407971 0.9605382980876251 0.9637761813214608 0.9685318223211574 0.9811798037033288 0.9764241627036323 0.9731862794697964 0.9685777613072952)
New LoadShape.COM1_10 npts=24 interval=1
~ mult=(0.3781808691113141 0.40323633041889595 0.41432859193527344 0.36917656270390187 0.4254208534516508 0.4097611901344121 0.40075688372699986 0.4901474618295707 0.8795510896515724 0.9390578102570795 0.9391883074513898 1.0 0.8785071120970899 0.36708860759493667 0.40075688372699986 0.42803079733785715 0.3780503719170038 0.38705467832441603 0.4259428422288921 0.3981469398407934 0.38718517551872633 0.40780373221975724 0.4188959937361347 0.38265965287746306)
New LoadShape.COM1_11 npts=24 interval=1
~ mult=(0.680469166518571 0.8381020081748711 0.7412475564243824 0.7730584681002308 0.7542207215212368 0.8672472009952016 0.7533321485693976 0.7536875777501332 0.7913630709081213 0.6920206148924826 0.7389372667495999 0.8448551626088502 0.7924293584503288 0.7368046916651856 0.7943842189443754 0.7890527812333391 0.7878087791007641 1.0 0.8142882530655765 0.9354896036964633 0.8135773947041052 0.8686689177181446 0.9214501510574018 0.8090395925004442)
New LoadShape.COM1_12 npts=24 interval=1
~ mult=(0.5027316433566432 0.5367132867132868 0.5279720279720279 0.4983610139860139 0.5197770979020978 0.5711319930069929 0.5179195804195804 0.5027316433566433 0.5371503496503496 0.8348994755244753 1.0 0.862980769230769 0.8845061188811189 0.8753277972027972 0.7847465034965033 0.7630026223776224 0.48371940559440557 0.5044798951048951 0.6853146853146853 0.5433784965034965 0.5449082167832168 0.5385708041958042 0.5373688811188809 0.5066179737762238)
New LoadShape.COM1_13 npts=24 interval=1
~ mult=(0.30269192422731805 0.24052841475573278 0.23005982053838486 0.23030907278165505 0.25558325024925227 0.2126121635094716 0.2528414755732802 0.23634097706879362 0.2990528414755733 0.979062811565304 0.6063808574277169 0.9912263210368895 0.7428713858424726 0.9625623130608176 1.0 0.9889332003988037 0.9814556331006979 0.9628115653040878 0.6847457627118645 0.6915752741774676 0.47522432701894324 0.4075772681954138 0.4610169491525424 0.3954284872382851)
New LoadShape.COM1_14 npts=24 interval=1
~ mult=(0.45392702535559676 0.49536178107606677 0.45933828076685224 0.47371675943104513 0.4857761286332715 0.45207173778602344 0.4930426716141002 0.4441867656153371 0.4712430426716141 0.47387136672850966 0.4472789115646259 0.4876314162028448 0.45253555967841685 0.4661410018552875 0.4664502164502165 0.4474335188620903 0.4930426716141002 0.45207173778602355 0.49304267161410015 0.45949288806431665 0.46181199752628327 0.7416512059369204 1.0 0.9541623475572047)
New LoadShape.COM1_15 npts=24 interval=1
~ mult=(0.21220536002583146 0.19515660316435263 0.1719082983532451 0.19793348401679042 0.18159509202453988 0.12379722311914755 0.1168873103002906 0.26903454956409434 0.37972231191475625 0.803035195350339 0.8024539877300614 0.9480142072973846 0.7364546335163061 0.7019696480464968 0.7222473361317405 1.0 0.6591540200193735 0.48111075234097517 0.250371327090733 0.2343558282208589 0.18630933161123667 0.18876331934129803 0.21582176299644815 0.2162772023248305)
New LoadShape.COM1_16 npts=24 interval=1
~ mult=(0.38165038002171553 0.38165038002171553 0.37350705754614544 0.33930510314875134 0.31433224755700323 0.37242128121606943 0.3821932681867534 0.3816503800217155 0.3903365906623235 0.6444082519001084 1.0 0.8816503800217156 0.7372421281216069 0.5428881650380022 0.5428881650380022 0.5168295331161781 0.46634093376764385 0.517372421281216 0.5591748099891423 0.7546145494028229 0.5510314875135722 0.509229098805646 0.4750271444082519 0.5253871438653637)
New LoadShape.COM1_17 npts=24 interval=1
~ mult=(0.5256302248720108 0.25604303026375475 0.1082885101419221 0.14879139394724902 0.13758019570993454 0.09403149504244702 0.1528092800207375 0.16797355971745187 0.12747067591212494 0.1548182230574817 0.3809863262264273 0.5386559523038039 0.5229732356943815 0.46322338150476317 0.587842654396993 0.7056574428099281 0.5443587583435939 0.8596980104983474 0.8182878620957812 0.8962478128442745 0.7853671181388114 0.9615708638455058 1.0 0.5169486251053075)
New LoadShape.COM1_18 npts=24 interval=1
~ mult=(0.760306686777275 0.3758169934640523 0.4139014580191051 0.4377828054298643 0.3993212669683258 0.5302916038210156 0.4130216189039718 0.5456259426847663 0.5908748114630469 0.4963549522373052 0.5149572649572649 1.0 0.45776772247360487 0.5250125691302162 0.3790849673202615 0.5548014077425842 0.44017094017094016 0.3570889894419307 0.31900452488687786 0.46882855706385124 0.35859728506787336 0.39115133232780297 0.5101809954751132 0.41176284301156363)
New LoadShape.COM1_19 npts=24 interval=1
~ mult=(0.5647738083521963 0.5538496867106257 0.4154118689105403 0.44601909260899525 0.42125118918741594 0.4165600498638586 0.4687858806547912 0.4128858708132402 0.48157989699176595 0.6592855033953352 0.6017780402191386 0.6991437850605255 0.8157661647475642 0.7424794147557656 0.7717088213102385 0.7426434406062395 0.725092674605518 0.7337860446806418 0.9398681232162189 1.0 0.8697634747236166 0.5821933536725389 0.48636945182560776 0.40227721598923993)
New LoadShape.COM1_2 npts=24 interval=1
~ mult=(0.33086854460093895 0.7190140845070422 0.3542253521126761 0.7226525821596245 0.44964788732394373 0.5694835680751175 0.7409624413145541 1.0 0.9179577464788734 0.7992957746478874 0.9989436619718309 0.8280516431924884 0.7670187793427231 0.2995305164319249 0.6967136150234741 0.4031690140845071 0.7607981220657277 0.47793427230046953 0.6274647887323944 0.5605633802816902 0.5476525821596245 0.6194835680751175 0.5021126760563381 0.6736777265258216)
New LoadShape.COM1_20 npts=24 interval=1
~ mult=(0.6589780422737533 0.5863738969833778 0.538231069156577 0.5498460907038784 0.5245228811820234 0.5743074081674533 0.6395239072439975 0.649168889800944 0.6417402011081469 0.7958136671454955 0.9236199466447773 0.6927560024625485 0.6616458034065258 0.6286476503180791 0.702729324851221 0.730474040632054 1.0 0.7316232300430946 0.9153293658936998 0.9359326903344961 0.9271085573568643 0.9856761748409603 0.8193720500718242 0.768871669238662)
New LoadShape.COM1_21 npts=24 interval=1
~ mult=(0.2599762181790285 0.1999846568896958 0.21768037744051344 0.19847591770978504 0.19975451023513316 0.1834652414621984 0.21752694633747166 0.293513700118909 0.45415606500364386 0.57303959801051 0.6181867000805513 0.5025891498638299 0.2432905857232358 0.21622278196161662 0.2058533965810435 0.344261037449975 0.4058636253212463 0.6526831264144429 1.0 0.9752080909335004 0.9353671478436536 0.5841377811305314 0.3080768689826239 0.2557297990819705)
New LoadShape.COM1_22 npts=24 interval=1
~ mult=(0.7585515320334262 0.8 0.6366573816155989 0.6766573816155989 0.6338718662952647 0.7158774373259054 0.85983286908078 0.9367130919220056 1.0 0.9335933147632312 0.9872980501392759 0.857158774373259 0.8623955431754875 0.9481894150417829 0.8573816155988858 0.7836211699164345 0.7500835654596101 0.9113091922005572 0.8459052924791087 0.9572144846796657 0.7052924791086351 0.6972701949860725 0.8306406685236769 0.8067035829526462)
New LoadShape.COM1_23 npts=24 interval=1
~ mult=(0.3613054665282355 0.30645962172166297 0.28551437728524354 0.28005236311109105 0.3121924795738726 0.28998329797318645 0.37584074391730243 0.48354624655802825 0.3523676251523496 0.4671150634225613 0.5011059450187333 0.4867963706947141 0.6657337606644699 0.6465941407484314 0.570938473344468 0.45623617568726593 0.7475285514377287 0.6407258610571933 0.9955762199250668 0.7077596713763373 0.9089062429467791 1.0 0.6327359725545073 0.4264686373403151)
New LoadShape.COM1_24 npts=24 interval=1
~ mult=(0.3798037306165256 0.21417334631807625 0.22398681549179716 0.27215521761929734 0.2600194771143906 0.2864634054985392 0.28009588733238444 0.21117686718106224 0.36886658176642445 0.4328414113416735 0.4896996029665143 0.8450820286163756 0.9188703273653456 0.45883586785527003 0.49029889879391714 1.0 0.5055809423926886 0.557869503333583 0.4781631582890104 0.5423627237995355 0.8428346692636152 0.6719604464753913 0.570904187579594 0.4381810125852123)
New LoadShape.COM1_25 npts=24 interval=1
~ mult=(0.6382635128716633 0.6737595389633007 0.5596719546562806 0.46125835154048317 0.4776289541179823 0.4374149013647446 0.5204711693739906 0.42785218960767546 0.4137614388398087 0.7052341597796143 0.4343750989519014 0.3409961685823754 0.6362053133213007 0.5891200405306988 0.6498527595706278 0.4163262721256451 0.5185396282574966 0.7887020676989328 0.554890598777746 1.0 0.7578607390519616 0.6764510306830055 0.5044805420980969 0.6797018675469427)
New LoadShape.COM1_26 npts=24 interval=1
~ mult=(0.1670877822153395 0.32838862172956235 0.4696389273779445 0.44388295704621406 0.4070421387236124 0.21297579264813762 0.1195696470780015 0.11639090390414868 0.1462221859972288 0.24859401744233436 0.31445105550574626 0.716113782704377 0.286086885646752 0.23816121933327905 0.28828755399788086 0.16765832586192844 0.571847746352596 1.0 0.8664112804629555 0.45537533621322035 0.27915885565245746 0.39766892167250806 0.5731518461162279 0.535393045724998)
New LoadShape.COM1_3 npts=24 interval=1
~ mult=(0.8294425580079231 0.8579513299377475 0.9368279569892475 0.9640633842671195 0.9310979060554612 0.8714629315223542 0.8455008488964347 0.7129315223542728 0.8640350877192982 0.807088285229202 0.6885964912280703 0.657328805885682 0.7235427277872101 0.6314374646293153 0.5334606677985286 0.6744482173174873 0.7852292020373516 0.5923174872665534 0.9069750990379174 0.8235002829654783 0.9707838143746464 1.0 0.9144736842105263 0.7806958655206564)
New LoadShape.COM1_4 npts=24 interval=1
~ mult=(0.7467683508102956 0.6638322211630123 0.6854337464251666 0.6329647283126787 0.6854337464251667 0.7149285033365109 0.7648236415633937 0.7121830314585319 0.7545090562440419 0.8334795042897998 0.8928503336510962 1.0 0.9865967588179217 0.9162249761677789 0.7715347950428979 0.7619447092469017 0.7869018112488084 0.7574833174451858 0.783908484270734 0.751306005719733 0.8119542421353669 0.7114013346043851 0.6930981887511914 0.6514134787607245)
New LoadShape.COM1_5 npts=24 interval=1
~ mult=(0.7483613703141649 0.7477801814600756 0.882729004552646 0.7982790352265022 0.8166510606696588 0.7792289561202416 0.642988602240806 0.5047948080462369 0.3426754060249911 0.3231087146039844 0.37362371250524684 0.36169319686158014 0.33421587937102454 0.3293726389202803 0.28337799877304576 0.26111523683445803 0.4111426818636789 0.6638791127183494 0.8255303348293564 0.9178424978205418 1.0 0.9968518937070162 0.9266733395757321 0.9203768407058215)
New LoadShape.COM1_6 npts=24 interval=1
~ mult=(0.13308506468051745 0.14386515092120736 0.16669933359466876 0.12710701685613485 0.12387299098392786 0.12093296746373973 0.11779694237553899 0.11328890631125049 0.10701685613484908 0.09496275970207761 0.09025872206977656 0.10397883183065464 0.10103880831046647 0.09643277146217169 0.08967071736573892 0.7862602900823206 0.9647197177577421 1.0 0.9818698549588396 0.9991179929439433 0.9754018032144256 0.21040768326146606 0.07977263818110544 0.07650742365738925)
New LoadShape.COM1_7 npts=24 interval=1
~ mult=(0.73328025477707 0.7949398443029017 0.7411535739561217 0.8082979476291579 0.7159412597310686 0.7503538570417551 0.7530077848549186 0.800070771408351 0.7854741684359519 0.844037508846426 0.8350141542816701 0.850141542816702 0.8323602264685066 0.7906050955414012 0.8016631280962491 0.8479299363057325 0.816790516631281 0.9154281670205238 0.942144373673036 1.0 0.9745222929936306 0.9730184005661712 0.935244161358811 0.718685402512385)
New LoadShape.COM1_8 npts=24 interval=1
~ mult=(0.7729706575283788 0.7856071964017992 0.7898907689012638 0.681944741914757 0.7931034482758621 0.7087170700364105 0.7279931462840009 0.6887984579139003 0.8226600985221676 1.0 0.9597344185050333 0.9832940672520883 0.7155707860355538 0.6221889055472264 0.6821589205397302 0.7532662240308419 0.717712572285286 0.8162347397729707 0.6917969586635253 0.7922467337759692 0.7524095095309489 0.7384878989076892 0.7828228742771471 0.7120605384450633)
New LoadShape.COM1_9 npts=24 interval=1
~ mult=(0.2199041078139173 0.21731242710898016 0.2153686665802773 0.217442011144227 0.217442011144227 0.21536866658027728 0.3687961643125567 0.8321886743553194 0.9860049241933393 0.9551639238045871 0.9919657898146946 0.993520798237657 1.0 0.5487883892704419 0.29337825579888555 0.2901386549177142 0.28923156667098615 0.285732797719321 0.2836594531553712 0.28780614228327067 0.29622910457431645 0.300246209666969 0.3023195542309188 0.3048150085525463)
New LoadShape.COM2_1 npts=24 interval=1
~ mult=(0.9164099498827531 0.9326712339264638 0.9187855380323998 0.9155516728738483 0.9190614127852619 0.9135132649776999 0.9158888531273467 0.9245176023418699 0.9460358330651215 0.9435989394148386 0.9427559887810932 0.9971186414701056 1.0 0.9845663402148754 0.9667111131546275 0.9532392293898568 0.9368246815945559 0.9655616350177016 0.9534844513924009 0.9564577681732491 0.963186046868055 0.9333302680583014 0.9643661777552989 0.9453911010314648)
New LoadShape.COM2_10 npts=24 interval=1
~ mult=(0.2300221975582686 0.23871624121346652 0.24861265260821308 0.27483351831298564 0.24995375508694045 0.5254347021827599 0.6497410284868665 0.6519607843137255 0.6234739178690344 0.7137902330743618 0.7528209396966336 0.7777007029226786 0.869496855345912 0.9417776544580096 1.0 0.9674898261191269 0.8844339622641509 0.8499352571217166 0.8591842397336293 0.9069552349241585 0.8580281169071402 0.7799667036625971 0.6778579356270811 0.3916618151128376)
New LoadShape.COM2_11 npts=24 interval=1
~ mult=(0.31002316006176023 0.3021744724652599 0.31414050437467833 0.29722079258878026 0.3266212043232115 0.29760679361811626 0.3087364899639732 1.0 0.69094184251158 0.6925501801338138 0.6124549665465774 0.48796963458569215 0.3529336078229542 0.3262995367987648 0.34424858466289243 0.44113484302624806 0.36438497169325784 0.3824626865671642 0.36522130725681934 0.3703036541430777 0.3502316006176016 0.3013381369016984 0.32224652599073594 0.3041008701749871)
New LoadShape.COM2_12 npts=24 interval=1
~ mult=(0.48859784283513097 0.5221879815100154 0.5166409861325115 0.50115562403698 0.5983821263482281 0.7430662557781202 0.7392141756548536 0.7624036979969184 0.6618644067796612 0.7173343605546996 0.8345916795069337 0.993220338983051 1.0 0.7391371340523883 0.7714946070878276 0.8073189522342065 0.7699537750385209 0.7561633281972266 0.8928351309707243 0.8232665639445301 0.7727272727272729 0.814406779661017 0.8266563944530048 0.7704188790446842)
New LoadShape.COM2_13 npts=24 interval=1
~ mult=(0.879364596381892 0.7958495229824946 0.8402598914254683 0.796046029037552 0.8259149494062777 0.807639886285939 0.8121595255522592 0.3991037978215917 0.4014618704822806 0.3456541508459773 0.3529248748831013 0.4130557277306676 0.4128592216756101 0.3668768047921771 0.3690383713978086 0.3759160833248178 0.38043572259113817 0.40126536442722316 0.6730332385716157 0.8469410972974202 0.9096265288607326 0.902552310878666 0.9884254569387525 1.0)
New LoadShape.COM2_14 npts=24 interval=1
~ mult=(0.1600199126057857 0.14762984678356103 0.14696609325737042 0.15343769013772884 0.16073897892582553 0.1456385862049892 0.1855191105702749 0.36838320703578736 0.8556336080535427 0.8948503788926379 0.8857237679075168 0.8941313125725979 0.7726644172797168 0.7720559765473753 0.9176945627523646 1.0 0.8014270700813099 0.603462580894961 0.1580839648210631 0.1692018363847558 0.17960064162840864 0.16466618728912 0.16781901653852535 0.1652795785165109)
New LoadShape.COM2_15 npts=24 interval=1
~ mult=(0.726076730854035 0.7279141555196237 0.6561810965750405 0.5776128178744672 0.5568866676466265 0.6005438777010144 0.5770248419814787 0.6110539467881817 0.5729825077171836 0.6125973835072761 0.5995149198882845 0.5817286491253859 0.6041452300455681 0.6151697780391003 0.5809201822725268 0.605468175804792 0.5987064530354255 0.6771277377627517 0.936351609584007 1.0 0.9692782595913568 0.924151109804498 0.8935028663824783 0.7595032522416582)
New LoadShape.COM2_16 npts=24 interval=1
~ mult=(0.763265306122449 0.7463340891912319 0.7554043839758126 0.7303099017384732 0.7430083144368859 0.7339380196523053 0.7356009070294783 0.7535903250188963 0.7124716553287982 0.7331821617535903 0.7304610733182161 0.7124716553287982 0.7035525321239606 0.7124716553287982 0.7053665910808768 0.6928193499622071 0.726832955404384 0.7089947089947091 0.8216175359032502 1.0 0.9767195767195768 0.9965230536659109 0.9874527588813303 0.9767404742252457)
New LoadShape.COM2_17 npts=24 interval=1
~ mult=(0.41982949163245975 0.4652983896431955 0.49137985475213136 0.5085569940006316 0.4906220397852858 0.47874960530470484 0.4608778023365962 0.5205557309756869 0.7434164824755288 0.7710767287653931 0.7725923586990845 0.7845279444269023 0.8657404483738554 0.9806125670982003 1.0 0.9015472055573098 0.6927691821913483 0.5883801705083674 0.5697505525734133 0.5428481212503947 0.49220082096621415 0.5293969055888854 0.5130407325544679 0.5138127921692454)
New LoadShape.COM2_18 npts=24 interval=1
~ mult=(0.669734303102271 0.7019444856761168 0.6807184206620157 0.6958586908119341 0.6667656226807184 0.6838355351046459 0.6537034288258868 0.6295086833902329 0.7023897877393498 0.6366335164019592 0.6295086833902329 0.64598485972985 0.7074365444559892 0.6465785958141604 0.6914056701796051 0.7132254712780167 0.6499925782989461 0.7311859878284102 0.9655633071099896 0.96051655039335 1.0 0.9291969719459698 0.9661570431943001 0.987941268665578)
New LoadShape.COM2_19 npts=24 interval=1
~ mult=(0.3332018408941486 0.3294937541091387 0.3064036817882972 0.31681788297172914 0.2917554240631164 0.33214990138067063 0.2926758711374096 0.33115055884286654 0.4410782380013149 0.6144378698224852 0.7675476660092045 0.7687047994740301 0.9616305062458907 1.0 0.9757527942143328 0.6254832347140039 0.29919789612097303 0.27581854043392506 0.33456936226166994 0.31487179487179484 0.3159500328731098 0.30532544378698223 0.3145299145299146 0.28860509677843527)
New LoadShape.COM2_2 npts=24 interval=1
~ mult=(0.8988452571092876 0.7884011675937654 0.7581465366892476 0.7146187879789246 0.7739163958803768 0.7901635732775238 0.7319123937508033 0.8291935158157552 0.963723816342641 0.9930972444052799 1.0 0.988048686457014 0.8978722623047127 0.9183418699858642 0.9059683134144776 0.8909327899249142 0.8816985184777222 0.8736024673679573 0.9180664940977769 0.9473114134126416 0.936021002001065 0.865818508931358 0.8044647610655211 0.7228412648748875)
New LoadShape.COM2_20 npts=24 interval=1
~ mult=(0.05572369592309062 0.08762091270547742 0.057444662037861256 0.06690997566909976 0.07779953711945879 0.44955788973948135 0.962168417304611 0.8724408047000178 1.0 0.9421992760073586 0.8006349771526913 0.8381401697228652 0.5003560619547801 0.33113761794552254 0.46667853539849274 0.3924396178268352 0.581271141178565 0.47299863509584 0.2151207643463296 0.07809625541510891 0.10337665420449825 0.07987656518900957 0.09355527861847962 0.057449175034122606)
New LoadShape.COM2_21 npts=24 interval=1
~ mult=(0.10342102291972452 0.10274359263859095 0.21000338715140568 0.2566331715027662 0.23122953596025744 0.2673026984306198 0.2279552896014452 0.23269730156938015 0.24472168905950098 0.38399006435587674 1.0 0.8065936547363668 0.6546234616687366 0.6866320424522977 0.6273004403296828 0.6453087953031501 0.4053291182115841 0.3599977418990629 0.3492717624477814 0.3126905272665688 0.3273117308343683 0.29400474201196797 0.3232471491475669 0.289359280738399)
New LoadShape.COM2_22 npts=24 interval=1
~ mult=(0.06559855820631091 0.07423557442648991 0.0774429544552036 0.06217735284234964 0.06160460640865077 0.060336927635397275 0.18488254879799615 0.3732244860555336 0.19358829459021906 0.48612426306625534 0.7041650120658584 0.43197299691480595 0.12470599016403458 0.0794742951400556 0.05841249961816905 0.07391483642361854 0.10588172404313166 0.246456608730183 0.761752756819501 1.0 0.9642148028224946 0.4019076274551731 0.18981580474692247 0.07439372676940466)
New LoadShape.COM2_23 npts=24 interval=1
~ mult=(0.22834807652746347 0.20729616676952617 0.21778783515051775 0.21374202838922035 0.2162106562435713 0.22587944867311252 0.25509154494959885 0.7069190152917783 1.0 0.8016868957004732 0.6194198724542276 0.3959404786395118 0.4259754508674484 0.4049235411095111 0.39354042378111503 0.4008091613522596 0.3230473839402043 0.3967633545909622 0.36275114859768226 0.3004182952753206 0.3036412260851677 0.29644106150997734 0.2858122471370774 0.24450100816018655)
New LoadShape.COM2_24 npts=24 interval=1
~ mult=(0.19704180064308682 0.19331189710610933 0.1707395498392283 0.1929903536977492 0.17980707395498396 0.18540192926045018 0.1807073954983923 0.21646302250803862 0.16848874598070743 0.20720257234726688 0.21138263665594856 0.16700964630225082 0.3126688102893891 0.38951768488745986 0.5880385852090033 0.655048231511254 0.6761414790996786 0.6040514469453377 0.5506752411575563 0.7955627009646303 0.9900964630225082 1.0 0.9238585209003216 0.3675351712540193)
New LoadShape.COM2_25 npts=24 interval=1
~ mult=(0.9154929577464788 1.0 0.8098591549295773 0.9366197183098591 0.8943661971830985 0.8943661971830985 0.8538732394366196 0.9154929577464788 0.8309859154929576 0.8116197183098591 0.8961267605633803 0.8538732394366196 0.7922535211267605 0.8961267605633803 0.8943661971830985 0.7711267605633803 0.8926056338028168 0.9137323943661971 0.75 0.8943661971830985 0.811619718309859 0.75 0.8926056338028168 0.9157197464788732)
New LoadShape.COM2_26 npts=24 interval=1
~ mult=(0.8579231376678073 0.831830744932877 0.7802711239799947 0.7515793629902605 0.8065609370887075 0.7445051329297184 0.3856607001842591 0.33874045801526725 0.32544748618057384 0.36628060015793634 0.41079889444590684 0.4196828112661227 0.4938141616214794 0.35634377467754674 0.34232692813898397 0.3404514345880495 0.3164648591734667 0.5710384311660962 0.9732166359568307 0.9741708344301132 1.0 0.9461042379573571 0.9302448012634904 0.8497416453013951)
New LoadShape.COM2_27 npts=24 interval=1
~ mult=(0.6300946669456456 0.5637811587922081 0.5763458234949647 0.5476099699618084 0.5222479615803184 0.4332482532691257 0.3395949654383936 0.3024826687700663 0.3001558790102965 0.8014627327526871 0.6020568503404203 0.4866480782558412 0.6091535591077181 0.7667935653321181 0.9022127293507168 0.43359727173309115 0.4788533325606127 0.609851596035649 0.9735288354876594 0.8035568435364799 0.7090891792898284 0.7251440286322396 0.636842357248978 1.0)
New LoadShape.COM2_28 npts=24 interval=1
~ mult=(1.0 0.6100090625314671 0.5481824589668715 0.5529151142885913 0.5255261302990635 0.4754808176417279 0.4150639411942403 0.2984593696505891 0.3864666196757628 0.4315778874232203 0.9595206927801834 0.5982277716242071 0.5101198268049542 0.42452925183768003 0.8525828214681302 0.9024267445373074 0.3910985802034035 0.6825093142684524 0.934548383848555 0.6718356660960629 0.7217802839593194 0.636089014197966 0.6088007250025175 0.7895174593696506)
New LoadShape.COM2_29 npts=24 interval=1
~ mult=(0.3841235818027274 0.41919509220592044 0.512916220111608 0.8038360619387264 0.35917809231678927 0.38711704054104 0.34934772164529365 0.6038656269633024 0.3107653645737093 0.3337891274622122 0.40936472153442477 0.8243467977382755 0.5722310506670608 0.7068997376104069 0.3277282974241472 0.35149118592704826 0.3715954026386784 0.3895561550685539 0.8111164492405484 1.0 0.5184596622195942 0.35914113603606934 0.34842381462729594 0.2803285371595402)
New LoadShape.COM2_3 npts=24 interval=1
~ mult=(0.7289187790998448 0.7048864224239288 0.6827352678361472 0.806612425339792 0.8396275219865494 0.8817194187085546 0.9569675022339273 0.952170436909185 0.8732069792597469 0.9420589756854629 1.0 0.844565677467902 0.8310680524855382 0.7502704228001692 0.7696468043079526 0.7368668579222122 0.6698020034802238 0.6856981611249588 0.6628415557541268 0.645252316230071 0.6186803367351738 0.6335888632836383 0.6736584677608991 0.6373361080280299)
New LoadShape.COM2_4 npts=24 interval=1
~ mult=(0.6371461582900056 0.703639514731369 0.6329289428076257 0.5841709994222992 0.5454072790294626 0.6668399768919699 0.8777585210860773 0.6076834199884459 0.6861929520508376 0.8005199306759098 1.0 0.6542461005199306 0.6385904101675332 0.6258809936452916 0.5915655690352396 0.7294049682264586 0.6768919699595609 0.6416522241478912 0.7301559792027729 0.6222414789139226 0.677585210860774 0.6155401502021951 0.6268630849220104 0.5943188830155979)
New LoadShape.COM2_5 npts=24 interval=1
~ mult=(0.6002955301071297 0.5673254525304765 0.5942002216475804 0.5151690062800148 0.5141300332471371 0.5264360916143332 0.5163695973402289 0.5239656446250461 0.7952761359438494 0.8031492427041006 0.8393055042482452 0.870012929442187 1.0 0.705878278537126 0.6862994089397858 0.5729128186183968 0.6313261913557444 0.6717999630587367 0.9411941263391209 0.8964259327669006 0.8779322127816771 0.900604913188031 0.7919283339490211 0.5760284948282232)
New LoadShape.COM2_6 npts=24 interval=1
~ mult=(0.35203588074927444 0.3406032890686835 0.330226013543224 0.2574971418520799 0.3312813296983555 0.38835634508838274 0.7144490370240084 0.757013455280978 0.6666959810043092 0.7217483070970012 0.679095945827104 0.5929997361709612 0.7466361797555184 0.8785506991469527 0.7445255474452556 0.8993052501978717 1.0 0.9626242195057602 0.3832556503385806 0.35827983466713564 0.350980564594143 0.31773810570750155 0.3613578401196025 0.30426835740040453)
New LoadShape.COM2_7 npts=24 interval=1
~ mult=(0.41019329212005934 0.4354527399367815 0.41097653081205077 0.4729083331002266 0.43231978516881603 0.41791378779826016 0.6289126968586534 1.0 0.9796917396290807 0.9518587932529582 0.8969761391927049 0.8831016252202859 0.946208285546449 0.8014769643906123 0.6917955747013904 0.7084114240957791 0.6994880975691629 0.6873478978432965 0.7042434753419677 0.613387787070967 0.3444292148032113 0.4213824162913649 0.41595569106828173 0.4082603351702146)
New LoadShape.COM2_8 npts=24 interval=1
~ mult=(0.8926681783824642 0.6069538926681783 0.49962207105064244 0.6069538926681783 0.42781557067271353 0.49962207105064255 0.6069538926681783 0.39153439153439157 0.49962207105064244 0.5359032501889646 0.42781557067271353 0.5351473922902494 0.5359032501889646 0.4633408919123205 0.6061980347694633 0.5714285714285714 0.6417233560090703 0.7853363567649282 0.4988662131519274 0.6780045351473921 1.0 0.8563869992441422 0.8208616780045352 0.9993739637188207)
New LoadShape.COM2_9 npts=24 interval=1
~ mult=(0.41031763910790725 0.3512502815949538 0.29015544041450775 0.4323946834872719 0.3243072764136067 0.3355710745663438 0.4246001351655779 0.33466997071412485 0.6530299617030862 0.9652173913043479 1.0 0.9636855147555757 0.8993917548997522 0.7965307501689569 0.7542689794998874 0.8555079972966884 0.824464969587745 0.8247803559360216 0.8114890741157919 0.6644739806262672 0.6784410903356611 0.7570173462491552 0.5287226852894796 0.360002578238342)
New LoadShape.COM3_1 npts=24 interval=1
~ mult=(0.9144729575494275 0.9333971503258348 0.9201428518832149 0.905526306100659 0.9099812230772063 0.8762932145355472 0.8872280107507087 0.8874857332204265 0.9145465925407753 0.9419756268178638 0.976215897794632 0.9577703324619858 0.9900960936637089 1.0 0.9962814329369315 0.9924155958911675 0.97750451014322 0.9905379036117963 0.9946246456316041 0.9908324435771879 0.9763999852730016 0.9770627001951326 0.9409447369389934 0.9473798410588712)
New LoadShape.COM3_10 npts=24 interval=1
~ mult=(0.8509581263307309 0.8613082564466523 0.8924769339957416 0.8974449964513839 0.9011710432931155 0.9310385616276319 0.8841968299030044 0.8926543647977289 0.8656848828956707 0.8571682044002837 0.865448308493021 0.8779276082327891 0.9182635438845516 0.9127040454222852 0.8953158268275372 0.8784599006387509 0.9009936124911284 0.9011710432931156 1.0 0.9881121362668559 0.9722616512893304 0.9495505086349656 0.9645729832032174 0.9519439420984149)
New LoadShape.COM3_11 npts=24 interval=1