New LoadShape.A3A npts=24 interval=1
~ mult=(1.0 0.9939131556458504 0.9926474145020072 0.9738789725729211 0.9806188426127476 0.9747013012141438 0.9528370338122186 0.9564730163337042 0.9654057627501247 0.964236766152308 0.9756123123558907 0.9584885277092502 0.943331882165143 0.9347135555233074 0.9193231106596365 0.9170899240555312 0.9213628081716894 0.9294651639013849 0.9290298134442669 0.9121801383447008 0.9067705058127346 0.8848014318192813 0.8147261323142907 0.7884196778406617)
New LoadShape.A3 npts=24 interval=1
~ mult=(0.9531886024423338 0.873134328358209 0.9009497964721844 0.9620081411126187 0.6512890094979646 0.6438263229308006 0.8046132971506106 0.9796472184531887 0.9728629579375848 1.0 0.8948439620081411 0.6567164179104478 0.6424694708276798 0.6350067842605156 0.6377204884667571 0.6363636363636362 0.6322930800542741 0.6336499321573948 0.6424694708276798 0.6370420624151968 0.6431478968792402 0.6472184531886025 0.6383989145183175 0.6383989145183175)
New LoadShape.A2 npts=24 interval=1
~ mult=(0.9854101362465474 1.0 0.999419633158499 0.9866422519474876 0.9755749356010056 0.9954750007758916 0.9679867167375316 0.9657676670494398 0.980643058874647 0.960715061605785 0.9614878495391206 0.9606343688898545 0.9767108407560287 0.9722013593619068 0.9689891685546693 0.9463176189441669 0.9665776977747431 0.9698985133918874 0.9769560224698178 0.9594239781508954 0.9732038111790446 0.9734831321188044 0.970935104434996 0.9561341981937246)
New LoadShape.COM1_1 npts=24 interval=1
~ mult=(0.9597940186175481 0.9664289958407607 0.9615765498118442 0.9660328777975837 0.9664289958407607 0.9629629629629631 0.9680134680134681 0.9568231332937215 0.9664289958407607 0.9629629629629631 0.9648445236680532 0.9598930481283425 0.9584076054664292 0.9602891661715193 0.9569221628045159 0.9877203406615173 1.0 0.9710833828480889 0.9629629629629631 0.9645474351356705 0.9630619924737572 0.9694989106753814 0.9722717369776194 0.9754261493365023)
New LoadShape.COM1_10 npts=24 interval=1
~ mult=(0.06785362974621287 0.07094235687586072 0.06374188471375172 0.06755852842809365 0.0686012197521149 0.06240409207161125 0.07027346055479049 0.06716506000393468 0.0864056659453079 0.5710013771394846 0.9813495966948652 1.0 0.9706275821365337 0.9909895730867598 0.605311823726146 0.389022230965965 0.3210505606925044 0.31741097776903404 0.286366319102892 0.2604957702144403 0.1597285067873303 0.06208931733228408 0.06582726736179421 0.061779113318906155)
New LoadShape.COM1_11 npts=24 interval=1
~ mult=(0.15837456656407056 0.17477695094868895 0.16951727899637667 0.16663419955584993 0.19051700627264578 0.15229672341917636 0.176062648537032 0.27112634900845445 0.5352398020804924 0.8284567732886585 1.0 0.8210153114894612 0.30174932793080605 0.18891962442046206 0.2134647601979195 0.18630926871079595 0.15553044765652393 0.1926987961195309 0.17325749016246542 0.1612966065375774 0.16394592278022363 0.16550434409942727 0.16655627848988971 0.19674664799158453)
New LoadShape.COM1_12 npts=24 interval=1
~ mult=(0.07454011342036226 0.09797822706065319 0.0943022762618408 0.0735190159762477 0.08187630582653911 0.17987024207864022 0.33861162165983316 0.629514428892345 0.8411957836530155 1.0 0.7147525016887382 0.3962957726565814 0.5636614983426803 0.31943069890192755 0.2773457750129601 0.11717485901000677 0.08844274785176807 0.09826099250671569 0.0784674112823413 0.09733415021128863 0.07618957852239346 0.08200197935812245 0.07980269255541418 0.07561809266852036)
New LoadShape.COM1_13 npts=24 interval=1
~ mult=(0.09185867895545315 0.10018433179723502 0.0884178187403994 0.09388632872503841 0.09351766513056836 0.09772657450076806 0.08824884792626728 0.10439324116743472 0.4758064516129033 1.0 0.9750537634408603 0.9613824884792628 0.9264976958525346 0.777711213517665 0.3733333333333334 0.20989247311827958 0.20929339477726577 0.20937019969278034 0.22165898617511523 0.10365591397849462 0.10093701996927804 0.0962672811059908 0.09235023041474655 0.09290695239631337)
New LoadShape.COM1_14 npts=24 interval=1
~ mult=(0.11630276564774382 0.11841339155749636 0.11328238719068413 0.11401018922852983 0.11728529839883552 0.11673944687045124 0.10764192139737992 0.1839155749636099 0.8246360989810771 0.9488355167394469 0.9476346433770013 1.0 0.896433770014556 0.5586972343522563 0.1638282387190684 0.14785298398835517 0.15131004366812226 0.14446870451237265 0.14388646288209608 0.11990538573508006 0.111608442503639 0.17288937409024743 0.24432314410480346 0.21676706495633186)
New LoadShape.COM1_15 npts=24 interval=1
~ mult=(0.13177667871409549 0.08930949210576375 0.10267262697355906 0.1290184515883584 0.08108236636865132 0.10661974510176908 0.2314533003614229 0.5491725318622789 0.7006372455773255 0.5499334221038615 0.5540232071523682 0.8180521209815486 0.7774871599771733 1.0 0.8940935894997146 0.4756990679094541 0.298554308540993 0.23016929807875214 0.1414304736541754 0.10752330226364848 0.11441887007799126 0.13995624881110902 0.10257751569336124 0.1124628507704014)
New LoadShape.COM1_16 npts=24 interval=1
~ mult=(0.06077201660630686 0.062008656479109615 0.06200865647910963 0.055207137178694465 0.05246886317463122 0.0579454111827577 0.06483526190265877 0.057945411182757714 0.612313399876336 0.9420545888172424 0.97235226570091 1.0 0.794452786856285 0.10202278950622737 0.9379030121014045 0.9834820245561346 0.8621146541824927 0.993110149280099 0.9310131613815034 0.6951682713541207 0.05935871389453228 0.062008656479109615 0.0579454111827577 0.04833038512498896)
New LoadShape.COM1_17 npts=24 interval=1
~ mult=(0.6108602661596958 0.5251901140684411 0.3819510456273764 0.2261763307984791 0.0955917300380228 0.13177281368821292 0.10759268060836501 0.13076283269961977 0.25974334600760457 0.2876069391634981 0.4029824144486692 0.6863711977186312 0.7468512357414449 0.42704372623574144 0.857949144486692 1.0 0.8108365019011406 0.6922528517110267 0.9174786121673004 0.9322124524714828 0.7952115019011406 0.8545627376425855 0.6801924904942965 0.678432084660171)
New LoadShape.COM1_18 npts=24 interval=1
~ mult=(0.16131545267375216 0.19275499415725333 0.20176951755606254 0.19013966946747538 0.1561960937065272 0.17311223638083578 0.31077847643425516 0.5431528573813366 0.5365867230538088 1.0 0.5683601357743031 0.6474319737354628 0.8609426297924434 0.548105280730065 0.7429191475154415 0.5854432140671082 0.4935729786878861 0.3137276723610261 0.2573590785153859 0.20176951755606257 0.16331868009570977 0.17556062545211729 0.19442435034221803 0.4140134524511713)
New LoadShape.COM1_19 npts=24 interval=1
~ mult=(0.5267870162442765 0.46271398990930035 0.4262299862929803 0.4341917232931844 0.3910875207792586 0.42655078888273207 0.4003616320102657 0.41631426988246956 0.5964886698358074 0.6920878415818483 0.8316661319956837 0.9873428796407012 0.8513809093295226 0.7223307766339059 0.8751203009711569 0.7701303625069263 0.6447840415293534 0.8079267403540493 1.0 0.9829391349995623 0.9512671702295197 0.7610312345066932 0.5873020502201871 0.531644609641576)
New LoadShape.COM1_2 npts=24 interval=1
~ mult=(0.4464366260712675 0.6352052322958952 0.4862426702751466 0.5767929634641408 0.5624718087505639 0.5559314388813712 0.820252593594948 0.740978800180424 0.9771087054578258 0.7306044203879116 0.9326792963464141 0.8990753270184934 1.0 0.6348669373026612 0.9724853405502932 0.8331078033378441 0.9948128101037437 0.6864005412719892 0.577807848443843 0.6445647271087054 0.42613892647722146 0.690234551195309 0.4123815967523681 0.756170048037889)
New LoadShape.COM1_20 npts=24 interval=1
~ mult=(0.2819455586857964 0.3030280415679396 0.25142260116793225 0.25584432545383307 0.24280303737010017 0.2896882404522472 0.2728968824045225 0.34241310472210296 0.8134106979607828 1.0 0.737084647101625 0.8719752234183473 0.4946360939569767 0.4749528909121439 0.3317226067650516 0.3328980018283923 0.39082818709304273 0.32646131457676447 0.38370118845500845 0.3880109703539245 0.37200320901509354 0.3544095971939775 0.3324875464094479 0.2900590840314185)
New LoadShape.COM1_21 npts=24 interval=1
~ mult=(0.21231768629598288 0.19669968639553986 0.18139280203096222 0.17632784110707353 0.16953307780377322 0.1787047638010852 0.1644556722584499 0.16411966747971526 0.16104584598536514 0.1589178157200458 0.206804719000448 0.23184329732689538 0.19867838120364378 0.23929762556623027 0.2291552590970183 0.30715814624919113 0.6206381601871671 0.8435711085668774 0.7558738613171387 1.0 0.7625939568918314 0.33504654288416547 0.30601324107720645 0.2500840798073573)
New LoadShape.COM1_22 npts=24 interval=1
~ mult=(0.5113444193912063 0.4511696730552424 0.5295236753100337 0.45694757609921083 0.4518742953776776 0.47766347237880497 0.6212655016910936 0.46963077790304397 0.3616121758737317 0.4752677564825253 0.6636837655016912 0.5574267192784667 0.5673618940248026 0.7875563697857948 0.8975479143179256 0.8080608793686583 0.8813416009019165 1.0 0.5498872604284104 0.5407271702367531 0.4977452085682074 0.5452367531003381 0.49464487034949267 0.5297501470546787)
New LoadShape.COM1_23 npts=24 interval=1
~ mult=(0.35251975072378433 0.361794003631189 0.37469944550763046 0.3272486383041367 0.3755827076892881 0.2949604985524314 0.36861475047843373 0.33343147357573977 0.27965062073703323 0.3759752686589136 0.4792188036704451 0.3551695372687571 0.95122429952402 0.5694587565631287 0.5370724765690172 0.5090534373619904 0.7617645615584672 0.5757397320771384 1.0 0.6025320182540852 0.5341773394180284 0.5562588939594681 0.550321409293881 0.5086871477010649)
New LoadShape.COM1_24 npts=24 interval=1
~ mult=(0.2075070378479825 0.2522364716922115 0.18623709727869878 0.21063497028464187 0.1506412261495152 0.27844854551141696 0.27019080387863625 0.3882389740381608 0.42364716922114487 0.5057866750078199 0.47932436659368166 0.8069440100093839 0.81570222083203 0.5856740694401001 0.5339380669377541 0.48733187363152963 1.0 0.5156709415076635 0.6466687519549578 0.5430090710040664 0.6616202690021896 0.5141695339380671 0.3350015639662184 0.2700344556146387)
New LoadShape.COM1_25 npts=24 interval=1
~ mult=(0.4412970662970664 0.5277777777777778 0.4538865788865789 0.4098521598521599 0.6320455070455071 0.5757680757680758 0.35400785400785406 0.482934857934858 0.8080965580965581 0.5438034188034188 1.0 0.5718699468699469 0.5143508893508894 0.5888484638484639 0.4509124509124509 0.6735966735966736 0.5898013398013399 0.7215003465003466 0.8588877338877339 0.6106202356202357 0.6288403788403788 0.6372141372141373 0.5898013398013398 0.5698131897378148)
New LoadShape.COM1_26 npts=24 interval=1
~ mult=(0.5284150404569252 0.6186577820085674 0.2964302712993812 0.07477391718229413 0.2288434079009995 0.11304140885292717 0.08572108519752498 0.23236554021894337 0.06335078534031413 0.38819609709662056 0.07225130890052356 0.0894811994288434 0.11927653498334125 0.1580675868633984 0.44578772013326984 0.3969538315088053 0.42346501665873393 0.378296049500238 1.0 0.7086149452641599 0.49490718705378384 0.7857210851975249 0.4886720609233698 0.6070583629224179)
New LoadShape.COM1_3 npts=24 interval=1
~ mult=(0.8586962461067702 0.8213758810993934 0.8849789628982021 0.8369488006119883 0.8248729577618709 0.8120867712146876 0.719960657887547 0.8309382000983553 0.783345172394951 0.6058138899513686 0.5167477187038959 0.5456532429921862 0.5631386263045736 0.4857658051472597 0.6455931369870498 0.780995574012349 0.6610567728539424 1.0 0.8083711272608054 0.9026829135019943 0.7531282443582318 0.6761379159608765 0.759193486694716 0.739567849461778)
New LoadShape.COM1_4 npts=24 interval=1
~ mult=(0.6483661023897781 0.5665431065407152 0.6082745426282435 0.5303291710083531 0.5773218769751116 0.6054389231478793 0.6444030679352933 0.6259032131326763 0.7080336857928631 0.7623887531815308 0.8124903913496524 0.9277429493859005 0.9338583215182522 1.0 0.9688935959413061 0.9658700739652553 0.8748911019627271 0.8114313045557814 0.8131565911070874 0.8025828052134404 0.7638748911019628 0.6808732341435916 0.6631249893237219 0.6461999254710373)
New LoadShape.COM1_5 npts=24 interval=1
~ mult=(1.0 0.9679008174245282 0.9439628845079209 0.9273414859192453 0.6996842064224357 0.5781491637318223 0.48178663790302667 0.4578227137454678 0.23241367659098885 0.25243992774435015 0.2164290634056323 0.2603282693732213 0.20188696409310064 0.285864663608364 0.21706584880895144 0.24499343721165967 0.3356898725129631 0.5007342525568884 0.5871161418601931 0.7540708781140756 0.8219989863416028 0.7725116635693772 0.6690275377197885 0.6860196591118793)
New LoadShape.COM1_6 npts=24 interval=1
~ mult=(0.16741071428571427 0.07901785714285714 0.08950892857142857 0.1337053571428571 0.05468749999999999 0.33132440476190467 0.572172619047619 0.8365327380952382 0.8776785714285713 0.8367559523809525 0.8315476190476189 0.8263392857142856 0.9444196428571429 0.8901785714285713 0.7029017857142856 0.7713541666666666 0.8168898809523809 0.9148809523809524 1.0 0.9087797619047618 0.9101934523809525 0.4217261904761904 0.08020833333333333 0.05924879486607142)
New LoadShape.COM1_7 npts=24 interval=1
~ mult=(0.36575670498084295 0.40632183908045977 0.4 0.4183908045977012 0.4031130268199234 0.40962643678160926 0.3953065134099617 0.424712643678161 0.7141283524904215 0.9786877394636015 1.0 0.8481800766283526 0.6558429118773946 0.6433908045977013 0.6008141762452108 0.6616858237547893 0.5992816091954023 0.5402298850574713 0.5170977011494253 0.5380268199233716 0.5075191570881226 0.5237547892720307 0.3968869731800766 0.4334258237547893)
New LoadShape.COM1_8 npts=24 interval=1
~ mult=(0.14218227906440833 0.1312363175481046 0.1326189653185851 0.13380957867649884 0.12904712524484388 0.1341168337366056 0.12151937627222797 0.2181510926758075 0.7260053001497868 0.6926297192456888 0.8882743787686752 1.0 0.8890041095364289 0.32296347505472983 0.20090640242731497 0.2100856473480048 0.24956792257172486 0.43061796673963976 0.21477128701463302 0.11207128317394477 0.1714483235395783 0.14341129930483543 0.14083803817644122 0.1404124085340093)
New LoadShape.COM1_9 npts=24 interval=1
~ mult=(0.1378131144737967 0.1378131144737967 0.13772762246729933 0.1390954945712576 0.14200222279216895 0.1437120629221168 0.19013422245020092 0.5832264683252115 0.949901684192528 0.9768316662392069 0.9584508848422674 1.0 0.9537488244849108 0.9299820466786356 0.9419509275882706 0.8735573223903565 0.6173377789176713 0.7498503889886297 0.7998632127896043 0.8081559374198513 0.43823202530563393 0.14071984269470805 0.13977943062323675 0.1381033975378302)
New LoadShape.COM2_1 npts=24 interval=1
~ mult=(0.9030926945694525 0.9047174016189559 0.9211226294373912 0.9101953961840951 0.8987361792066253 0.8657388103693693 0.9001739730557432 0.8988655806530459 0.8887291340167646 0.9012954522580552 0.9197279694037469 0.9337320814941554 0.9525671809176 0.9676065045793734 0.9864703598798006 0.984428692614053 1.0 0.960345645641328 0.9165648229356873 0.8825178645885753 0.8738623456168855 0.8758321231901769 0.8872769622291555 0.857318297565815)
New LoadShape.COM2_10 npts=24 interval=1
~ mult=(0.16971086036671368 0.17612834978843442 0.18441466854724964 0.18554301833568404 0.228984485190409 0.5633991537376586 0.6057122708039493 0.8411142454160788 0.9888928067700988 1.0 0.6038081805359661 0.6535966149506348 0.6186177715091679 0.5405500705218618 0.5649153737658674 0.6223906911142454 0.6184062059238364 0.590197461212976 0.5980253878702398 0.6390338504936529 0.6675599435825107 0.6346614950634697 0.4558180535966149 0.27428645246826516)
New LoadShape.COM2_11 npts=24 interval=1
~ mult=(0.1475177304964539 0.14948617744970327 0.14702561875814155 0.20063685048487478 0.2110580402373715 0.43019250253292807 0.8137212331741207 0.9059777102330292 1.0 0.9946446663771891 0.7195542046605876 0.6537849182226082 0.6300188160370531 0.45381386597192064 0.3978868143001882 0.3836734693877551 0.37064698219713416 0.29075119409465916 0.24825589810392243 0.23514256766536398 0.21496598639455783 0.19241568968012737 0.19215515993631496 0.1909658254161239)
New LoadShape.COM2_12 npts=24 interval=1
~ mult=(0.16139111292584638 0.1560830123027215 0.16298886896625187 0.17268192227804505 0.14910614425961763 0.1463899589909283 0.3318539295922171 0.672069449129223 0.9284737879245148 0.9925793108345613 1.0 0.9688970157467733 0.5726535177262158 0.47822613573825207 0.4531768715936729 0.24687106108753928 0.2486108398870919 0.19781995064709118 0.1679596655364022 0.16417830957410928 0.1555504269559197 0.16469314207601768 0.16978820856042182 0.162467497541231)
New LoadShape.COM2_13 npts=24 interval=1
~ mult=(0.8845684039087945 0.9664087947882735 0.9497149837133549 0.9615228013029314 1.0 0.9543973941368078 0.9761807817589575 0.6514657980456026 0.46885179153094453 0.4326140065146579 0.44238599348534197 0.4857491856677524 0.44238599348534197 0.447271986970684 0.48330618892508137 0.45419381107491846 0.44238599348534197 0.47597719869706834 0.7404315960912052 0.8080211726384364 0.9904315960912051 0.9303745928338761 0.9543973941368078 0.8943028978013029)
New LoadShape.COM2_14 npts=24 interval=1
~ mult=(0.06825062981024799 0.06850486513971386 0.06714123928166964 0.06741858691381421 0.06933690803614764 0.06878221277185846 0.10835047495782003 0.7426213973698199 0.8643307832759377 0.9609633207756488 1.0 0.9380359165183626 0.615711743360991 0.32096054729932744 0.23660064252201446 0.20523724778699698 0.08380520951302378 0.06522291815933622 0.06550026579148081 0.06852797744239257 0.07231839508170199 0.06769593454595882 0.06961425566829221 0.0671344598885987)
New LoadShape.COM2_15 npts=24 interval=1
~ mult=(0.13892913150623554 0.1429616906877754 0.1300575013068479 0.11088044208796953 0.11663057277275783 0.1126428198043462 0.11728773056530506 0.16551415129564634 0.5604062429990293 0.8849077738779777 0.9621088790979017 1.0 0.8803076693301471 0.9263684564259579 0.7748935852438206 0.48120379359271154 0.34236427451273244 0.23358972444178927 0.25139272645806887 0.2156971099992532 0.21045478306325144 0.2034948846240012 0.1746546187738033 0.18190314230453292)
New LoadShape.COM2_16 npts=24 interval=1
~ mult=(0.08131623502853201 0.07584498651784034 0.07861980309776134 0.07446541669279488 0.0739167241487427 0.07335235467486047 0.07244309274471687 0.08590957546874019 0.2400294726280805 0.6489778641750799 0.9182448109362261 0.9702765410422024 1.0 0.8593936163541732 0.5773342948516962 0.3730011914466671 0.3829873957484166 0.2885966012416128 0.15797642189753558 0.17343387470997676 0.15159591145670032 0.11168244810936225 0.09439079450680377 0.09736463842729039)
New LoadShape.COM2_17 npts=24 interval=1
~ mult=(0.40097402597402604 0.41538149350649345 0.41774891774891776 0.5159632034632035 0.48085768398268397 0.42018398268398266 0.4073998917748917 0.4161255411255411 0.6494182900432901 0.8147321428571428 0.7923430735930735 0.8083739177489178 0.8946158008658008 0.932900432900433 1.0 0.9161255411255411 0.7435741341991342 0.49039502164502163 0.4353354978354978 0.4288419913419913 0.46962932900432897 0.5104166666666666 0.4776109307359307 0.43930985267857137)
New LoadShape.COM2_18 npts=24 interval=1
~ mult=(0.16803636999475435 0.14138835460744886 0.14771813254065397 0.14663402692778457 0.1385906627032698 0.16205630354957162 0.18300402168211227 0.21510753628256687 0.8602203182374542 1.0 0.7350585766742438 0.6850848050358455 0.4490295506207379 0.5567756600804337 0.29795418779506905 0.19297079909075016 0.1660080433642245 0.16390977443609026 0.2124497289735968 0.21206504633677217 0.21112082531911175 0.23080958209477181 0.21699597831788775 0.2220831463192866)
New LoadShape.COM2_19 npts=24 interval=1
~ mult=(0.2765873602285602 0.2696418895620905 0.2974976602137826 0.2597162701344762 0.2623269789665534 0.28294172700852177 0.2701098468055761 0.4314565784936703 0.5256637604058914 0.5851189596571599 0.6709521698438501 0.6659524161371362 0.9133540219693612 1.0 0.8612876212994435 0.5968425200729028 0.3603517068124723 0.32882616619870947 0.3355992315649476 0.33064873651544263 0.3219545835180533 0.35362790010344325 0.3102802817595192 0.30060890788631106)
New LoadShape.COM2_2 npts=24 interval=1
~ mult=(0.7174461292897046 0.6801755786113327 0.6570311252992816 0.6178451715881883 0.6044213886671986 0.589608938547486 0.6846288906624102 0.7946687948922584 0.8320989624900239 0.8411652035115721 0.8436392657621707 0.9038467677573822 0.9855387071029528 0.903926576217079 0.9950199521149241 1.0 0.915019952114924 0.9125937749401437 0.951827613727055 0.8777015163607341 0.7754828411811652 0.7384836392657621 0.7299122106943335 0.7219878415642458)
New LoadShape.COM2_20 npts=24 interval=1
~ mult=(0.06066176470588235 0.048751007252215955 0.05680902497985497 0.07881748589846899 0.04462127316680097 0.07821313456889606 0.6738013698630138 0.8013698630136987 0.7570507655116842 0.8519087429492347 1.0 0.7487409347300565 0.5944298952457695 0.5447723609991942 0.48975120870265915 0.43533440773569715 0.5007302578565673 0.542077961321515 0.6809276792908945 0.41717868654311047 0.12489927477840453 0.09485797743755038 0.05708601933924255 0.04875483725322321)
New LoadShape.COM2_21 npts=24 interval=1
~ mult=(0.18136047522457263 0.17625325992465954 0.16469863807592006 0.17665169516082296 0.17451463343958273 0.15738191828455522 0.16339466821211246 0.17368154158215013 0.5124239350912779 0.6184801506809621 1.0 0.8481961750217327 0.7459432048681542 0.4589611706751666 0.40676615473775724 0.38452622428281663 0.2129817444219067 0.23779339321935672 0.22410170964937703 0.2095407128368589 0.21175021732831065 0.20917849898580126 0.18650391190959145 0.2005927379020574)
New LoadShape.COM2_22 npts=24 interval=1
~ mult=(0.07493598707029618 0.08388871738064539 0.08529609384931083 0.06277807035066373 0.06765394882597561 0.06536582708337116 0.12446655891913486 0.1788911689396553 0.07420051936731617 0.11906404924909654 0.1259919734142045 0.11840122033159603 0.09970581291880798 0.11185464979025549 0.11599506056258736 0.1375233806090762 0.1002052045689796 0.11259011749323548 0.737982820927234 1.0 0.5513102220930866 0.46905587738573 0.2930611800170701 0.12898260162166086)
New LoadShape.COM2_23 npts=24 interval=1
~ mult=(0.21976719871750186 0.21237889454241302 0.22060361051090818 0.21314560535303545 0.20582700216073044 0.22387955670174944 0.22060361051090815 0.6896912246462674 0.916916428521642 1.0 0.4691573151181431 0.3308705652749704 0.29797170140098966 0.3324736878789991 0.3564508259566459 0.3193002021328501 0.3004809367812086 0.3325433888617829 0.41074789154527075 0.36376942914895094 0.35066564438558584 0.28647103924165324 0.25029622917683136 0.22715438523733184)
New LoadShape.COM2_24 npts=24 interval=1
~ mult=(0.4273120561586809 0.43686229695535056 0.4928577258999265 0.3754795526895764 0.33311566402742626 0.33091176230511793 0.36029711860256297 0.30013876418251567 0.3209533915598726 0.28781323973553175 0.33393192392457755 0.4565341604766957 0.5277120235082849 0.852828340543629 0.40192637335727693 0.7913639702881397 0.9596767610807281 1.0 0.6294996326830462 0.5243653579299649 0.5650967267978123 0.37139825320382003 0.43188311158272785 0.323300626724349)
New LoadShape.COM2_25 npts=24 interval=1
~ mult=(0.010964997099207117 0.009824018565074455 0.011197060529878167 0.010036743376522916 0.010964997099207117 0.008895764842390253 0.02922065364532973 0.610172113711081 0.5364339586153549 0.8474569715722299 1.0 0.9271514213885129 0.7060916650551151 0.4663121253142526 0.03401663121253143 0.03401663121253143 0.01941597369947786 0.010288145426416555 0.011661187391220268 0.011409785341326632 0.009359891703732354 0.010964997099207117 0.011197060529878167 0.009125787371881649)
New LoadShape.COM2_26 npts=24 interval=1
~ mult=(0.843022117831278 0.8291250733998825 0.7737326286944607 0.8004828081163958 0.798492855744764 0.7247341293142819 0.6158739479350165 0.45909179878645523 0.4914856136230181 0.5506948522215698 0.5059372349448685 0.46845436158413256 0.4323416193645201 0.3874535134077118 0.4059176616428525 0.4097018333659555 0.38376720819468907 0.5458993932276374 1.0 0.9761205715404188 0.9355059698571148 0.9139100932994062 0.8701963854635609 0.8425357175572518)
New LoadShape.COM2_27 npts=24 interval=1
~ mult=(0.6222692036645525 1.0 0.4024841437632135 0.4185165609584214 0.39103241719520787 0.30276603241719524 0.2639182522903453 0.33994009866102887 0.46088794926004223 0.6314305849189571 0.7397815362931641 0.6313424947145878 0.38777307963354474 0.5780479210711769 0.3572938689217759 0.6359231853417899 0.356060606060606 0.49436222692036647 0.6196264975334743 0.7468287526427061 0.8591437632135306 0.7720225510923187 0.45155038759689914 0.44426675449260034)
New LoadShape.COM2_28 npts=24 interval=1
~ mult=(0.5200884629561371 0.5516955399926281 0.4994471065241431 0.48322889789900475 0.44941024695908594 0.4428676741614449 0.3851824548470328 0.7497235532620714 0.465720604496867 0.6506634721710284 0.6464246221894582 0.3754146701068927 0.7769074824917067 1.0 0.41678953188352375 0.42655731662366386 0.6267969037965352 0.8215997051234796 0.57454847032805 0.5843162550681902 0.6757279764098784 0.622465904902322 0.948857353483229 0.5528354601916696)
New LoadShape.COM2_29 npts=24 interval=1
~ mult=(0.6521105701031322 0.3688992830579304 0.3526051451136755 0.32270060959245483 0.3239658014798911 0.37035617068588733 0.3493463175248246 0.3798642794157113 0.3653337422842464 0.7043284898209562 0.6611202699076026 1.0 0.3920561285128244 0.3763370777901315 0.4379864279415711 0.7834604915078788 0.9240884867538243 0.41854847985277766 0.4013342023540237 0.42882337154468425 0.4628301959130468 0.5854387915500517 0.6383084767856458 0.40668683571675035)
New LoadShape.COM2_3 npts=24 interval=1
~ mult=(0.5122697346545189 0.5363769368890071 0.5105406663563211 0.5411318747090511 0.560018620735519 0.5531688501695817 0.5896787923122965 0.7750881159805814 0.7852297665757797 0.8178493050475494 0.8968544257498172 0.9337301323402275 1.0 0.9525836270532688 0.7921792910819978 0.7005386712775156 0.642880893795305 0.6182416705459866 0.48896056394227577 0.45800359114185 0.45052204562080206 0.47832014364567405 0.5039901576112257 0.4748649559420097)
New LoadShape.COM2_4 npts=24 interval=1
~ mult=(0.6468653345770534 0.5572193038440768 0.5372379596445579 0.5732731111002014 0.5798517354803868 0.6453925082232805 0.9273405665472041 0.946880062840591 0.6349845353232854 0.7023908881142914 0.6633118955275172 0.684520595021847 0.8533555893760125 0.759831115911434 0.788502135598213 1.0 0.7403407138298395 0.7000343659482547 0.6461780156119594 0.6124011978987677 0.7129952378614561 0.6553095390053513 0.6153468506063134 0.5947685284991899)
New LoadShape.COM2_5 npts=24 interval=1
~ mult=(0.45723885690285776 0.4104614738463154 0.3904240239399402 0.37927655180862047 0.3845790385524036 0.33906165234586916 0.363999090002275 0.4569763575591061 0.6748858127854681 0.7402656493358767 0.7901930245174387 0.7695605760985598 0.6319059202351993 0.7109882225294437 0.6241884395289011 0.6498433753915616 0.6535708660728349 0.8019879950300125 0.9717725705685736 1.0 0.8983602540993647 0.7451306371734071 0.6129184677038307 0.5135427277181807)
New LoadShape.COM2_6 npts=24 interval=1
~ mult=(0.3155686761963953 0.31005282784338095 0.2944375388440025 0.2531075201988813 0.30997513983840896 0.31650093225605963 0.38525481665630823 0.7945152268489746 0.9852392790553137 0.9439869484151647 1.0 0.7201678060907396 0.42565257924176514 0.48523927905531383 0.6375854568054693 0.8522374145431945 0.9403356121814791 0.9485705407085147 0.5751243008079553 0.30554692355500307 0.290863890615289 0.26336233685518956 0.3036047234307023 0.24675072855811062)
New LoadShape.COM2_7 npts=24 interval=1
~ mult=(0.2564802913453299 0.28565052842045136 0.3427592116538132 0.31637389317337905 0.31658811768066264 0.32556769494430166 0.639870751213939 0.8788381890888318 0.9570301342473579 0.971847329334476 0.9602970579834333 1.0 0.830994715795487 0.5965438446158241 0.5808697514995715 0.5907776349614396 0.5512889174521566 0.5450407026563839 0.5848150528420452 0.5244394458726078 0.3527385032847758 0.298468294772922 0.2885425592687803 0.30675849073479006)
New LoadShape.COM2_8 npts=24 interval=1
~ mult=(0.06626607513899029 0.045094625708990844 0.05301286011119223 0.04509462570899086 0.047790194867187066 0.058347840736788906 0.04509462570899085 0.04509462570899085 0.0689616442971865 0.11405627000617734 0.7904756556410402 0.8833043185264222 1.0 0.3051047340933341 0.034424664457797495 0.03975964508339417 0.04245521424159039 0.03975964508339417 0.037176391306789465 0.04773403717639132 0.06362666367158983 0.07160105576458696 0.06626607513899029 0.06630204166900656)
New LoadShape.COM2_9 npts=24 interval=1
~ mult=(0.49246720270842154 0.3575539568345324 0.22018620397799407 0.36064325010579773 0.24600084638171815 0.25107913669064746 0.38468049090139655 0.2483707151925518 0.6014811680067711 0.9008887008040627 0.9297079983072366 0.9699111299195938 0.9569614896318239 1.0 0.9821413457469318 0.9662293694456201 0.9792213288192975 0.8881506559458316 0.9603470165044434 0.8329242488362251 0.7765129073212019 0.7612357173085061 0.5493863732543378 0.4208684808717732)
New LoadShape.COM3_1 npts=24 interval=1
~ mult=(0.9293401618050917 0.9491946856676315 0.9362057448229794 0.9156089957693164 0.9216581310769688 0.901321160840199 0.8869219921324131 0.9045127291620277 0.930935945966006 0.9685667631559416 0.9864172790024495 0.9840421583908558 0.9898315148816151 0.9970682104950643 1.0 0.9893490685073854 0.9603651747940326 0.9822608179321608 0.9981815482817489 0.9652267497958882 0.9617011801380541 0.9594373933051289 0.9528687003636903 0.9587460445335114)
New LoadShape.COM3_10 npts=24 interval=1
~ mult=(0.6106582195928634 0.60581357432338 0.6678623002748404 0.6417291656961848 0.6616201611776213 0.7078772068756696 0.7648949550472819 0.8912283970745796 0.9788512600736011 0.9863511436157822 1.0 0.815903479759631 0.7616341361158986 0.7292588624400242 0.7545535007220384 0.8188382167978755 0.8249406065123209 0.8072856011552614 0.8827036847253923 0.8068663530069407 0.7924721665812642 0.8035589509479666 0.7534355056598498 0.7799995081753388)
New LoadShape.COM3_11 npts=24 interval=1