New load.pip448735-1 phases=1 bus=5008938076.3.1.4 model=2 kv=0.22 kw=0.008027186073059361 pf=0.92 conn=delta status=variable vmaxpu=1.5 vminpu=0.92 daily=IP
New load.pip448735-2 phases=1 bus=5008938076.3.1.4 model=3 kv=0.22 kw=0.008027186073059361 pf=0.92 conn=delta status=variable vmaxpu=1.5 vminpu=0.92 daily=IP

New load.pip456545-1 phases=1 bus=5008938174.3.1.4 model=2 kv=0.22 kw=0.01123835616438356 pf=0.92 conn=delta status=variable vmaxpu=1.5 vminpu=0.92 daily=IP
New load.pip456545-2 phases=1 bus=5008938174.3.1.4 model=3 kv=0.22 kw=0.01123835616438356 pf=0.92 conn=delta status=variable vmaxpu=1.5 vminpu=0.92 daily=IP

New load.pip477168-1 phases=1 bus=5008938142.1.2.4 model=2 kv=0.22 kw=0.01123835616438356 pf=0.92 conn=delta status=variable vmaxpu=1.5 vminpu=0.92 daily=IP
New load.pip477168-2 phases=1 bus=5008938142.1.2.4 model=3 kv=0.22 kw=0.01123835616438356 pf=0.92 conn=delta status=variable vmaxpu=1.5 vminpu=0.92 daily=IP

New load.pip487378-1 phases=1 bus=5008938172.3.1.4 model=2 kv=0.22 kw=0.01123835616438356 pf=0.92 conn=delta status=variable vmaxpu=1.5 vminpu=0.92 daily=IP
New load.pip487378-2 phases=1 bus=5008938172.3.1.4 model=3 kv=0.22 kw=0.01123835616438356 pf=0.92 conn=delta status=variable vmaxpu=1.5 vminpu=0.92 daily=IP

New load.pip549708-1 phases=1 bus=5001060588.1.2.4 model=2 kv=0.22 kw=0.00882841324200913 pf=0.92 conn=delta status=variable vmaxpu=1.5 vminpu=0.92 daily=IP
New load.pip549708-2 phases=1 bus=5001060588.1.2.4 model=3 kv=0.22 kw=0.00882841324200913 pf=0.92 conn=delta status=variable vmaxpu=1.5 vminpu=0.92 daily=IP

New load.pip550277-1 phases=1 bus=5008938131.2.3.4 model=2 kv=0.22 kw=0.008027186073059361 pf=0.92 conn=delta status=variable vmaxpu=1.5 vminpu=0.92 daily=IP
New load.pip550277-2 phases=1 bus=5008938131.2.3.4 model=3 kv=0.22 kw=0.008027186073059361 pf=0.92 conn=delta status=variable vmaxpu=1.5 vminpu=0.92 daily=IP

New load.pip553591-1 phases=1 bus=5008850365.2.3.4 model=2 kv=0.22 kw=0.037454058219178084 pf=0.92 conn=delta status=variable vmaxpu=1.5 vminpu=0.92 daily=IP
New load.pip553591-2 phases=1 bus=5008850365.2.3.4 model=3 kv=0.22 kw=0.037454058219178084 pf=0.92 conn=delta status=variable vmaxpu=1.5 vminpu=0.92 daily=IP

New load.pip554541-1 phases=1 bus=5008850354.1.2.4 model=2 kv=0.22 kw=0.037454058219178084 pf=0.92 conn=delta status=variable vmaxpu=1.5 vminpu=0.92 daily=IP
New load.pip554541-2 phases=1 bus=5008850354.1.2.4 model=3 kv=0.22 kw=0.037454058219178084 pf=0.92 conn=delta status=variable vmaxpu=1.5 vminpu=0.92 daily=IP

New load.pip556983-1 phases=1 bus=5008850407.1.2.4 model=2 kv=0.22 kw=0.037454058219178084 pf=0.92 conn=delta status=variable vmaxpu=1.5 vminpu=0.92 daily=IP
New load.pip556983-2 phases=1 bus=5008850407.1.2.4 model=3 kv=0.22 kw=0.037454058219178084 pf=0.92 conn=delta status=variable vmaxpu=1.5 vminpu=0.92 daily=IP

New load.pip557474-1 phases=1 bus=5008967603.1.2.4 model=2 kv=0.22 kw=0.013378190639269408 pf=0.92 conn=delta status=variable vmaxpu=1.5 vminpu=0.92 daily=IP
New load.pip557474-2 phases=1 bus=5008967603.1.2.4 model=3 kv=0.22 kw=0.013378190639269408 pf=0.92 conn=delta status=variable vmaxpu=1.5 vminpu=0.92 daily=IP

New load.pip557718-1 phases=1 bus=5008850409.3.1.4 model=2 kv=0.22 kw=0.037454058219178084 pf=0.92 conn=delta status=variable vmaxpu=1.5 vminpu=0.92 daily=IP
New load.pip557718-2 phases=1 bus=5008850409.3.1.4 model=3 kv=0.22 kw=0.037454058219178084 pf=0.92 conn=delta status=variable vmaxpu=1.5 vminpu=0.92 daily=IP

New load.pip559081-1 phases=1 bus=5001055870.1.2.4 model=2 kv=0.22 kw=0.01096634703196347 pf=0.92 conn=delta status=variable vmaxpu=1.5 vminpu=0.92 daily=IP
New load.pip559081-2 phases=1 bus=5001055870.1.2.4 model=3 kv=0.22 kw=0.01096634703196347 pf=0.92 conn=delta status=variable vmaxpu=1.5 vminpu=0.92 daily=IP

New load.pip559082-1 phases=1 bus=5001055884.2.3.4 model=2 kv=0.22 kw=0.014983076484018266 pf=0.92 conn=delta status=variable vmaxpu=1.5 vminpu=0.92 daily=IP
New load.pip559082-2 phases=1 bus=5001055884.2.3.4 model=3 kv=0.22 kw=0.014983076484018266 pf=0.92 conn=delta status=variable vmaxpu=1.5 vminpu=0.92 daily=IP

New load.pip559987-1 phases=1 bus=5001060595.3.1.4 model=2 kv=0.22 kw=0.00882841324200913 pf=0.92 conn=delta status=variable vmaxpu=1.5 vminpu=0.92 daily=IP
New load.pip559987-2 phases=1 bus=5001060595.3.1.4 model=3 kv=0.22 kw=0.00882841324200913 pf=0.92 conn=delta status=variable vmaxpu=1.5 vminpu=0.92 daily=IP

New load.pip563472-1 phases=1 bus=5008850358.2.3.4 model=2 kv=0.22 kw=0.037454058219178084 pf=0.92 conn=delta status=variable vmaxpu=1.5 vminpu=0.92 daily=IP
New load.pip563472-2 phases=1 bus=5008850358.2.3.4 model=3 kv=0.22 kw=0.037454058219178084 pf=0.92 conn=delta status=variable vmaxpu=1.5 vminpu=0.92 daily=IP

New load.pip572427-1 phases=1 bus=5001643086.1.2.4 model=2 kv=0.22 kw=0.01123835616438356 pf=0.92 conn=delta status=variable vmaxpu=1.5 vminpu=0.92 daily=IP
New load.pip572427-2 phases=1 bus=5001643086.1.2.4 model=3 kv=0.22 kw=0.01123835616438356 pf=0.92 conn=delta status=variable vmaxpu=1.5 vminpu=0.92 daily=IP

New load.pip572724-1 phases=1 bus=5008938166.1.2.4 model=2 kv=0.22 kw=0.01123835616438356 pf=0.92 conn=delta status=variable vmaxpu=1.5 vminpu=0.92 daily=IP
New load.pip572724-2 phases=1 bus=5008938166.1.2.4 model=3 kv=0.22 kw=0.01123835616438356 pf=0.92 conn=delta status=variable vmaxpu=1.5 vminpu=0.92 daily=IP

New load.pip577492-1 phases=1 bus=5008850367.1.2.4 model=2 kv=0.22 kw=0.037454058219178084 pf=0.92 conn=delta status=variable vmaxpu=1.5 vminpu=0.92 daily=IP
New load.pip577492-2 phases=1 bus=5008850367.1.2.4 model=3 kv=0.22 kw=0.037454058219178084 pf=0.92 conn=delta status=variable vmaxpu=1.5 vminpu=0.92 daily=IP

New load.pip578011-1 phases=1 bus=5008938170.1.2.4 model=2 kv=0.22 kw=0.01123835616438356 pf=0.92 conn=delta status=variable vmaxpu=1.5 vminpu=0.92 daily=IP
New load.pip578011-2 phases=1 bus=5008938170.1.2.4 model=3 kv=0.22 kw=0.01123835616438356 pf=0.92 conn=delta status=variable vmaxpu=1.5 vminpu=0.92 daily=IP

New load.pip584442-1 phases=1 bus=5008938168.3.1.4 model=2 kv=0.22 kw=0.01123835616438356 pf=0.92 conn=delta status=variable vmaxpu=1.5 vminpu=0.92 daily=IP
New load.pip584442-2 phases=1 bus=5008938168.3.1.4 model=3 kv=0.22 kw=0.01123835616438356 pf=0.92 conn=delta status=variable vmaxpu=1.5 vminpu=0.92 daily=IP

New load.pip588246-1 phases=1 bus=5001055968.3.1.4 model=2 kv=0.22 kw=0.014983076484018266 pf=0.92 conn=delta status=variable vmaxpu=1.5 vminpu=0.92 daily=IP
New load.pip588246-2 phases=1 bus=5001055968.3.1.4 model=3 kv=0.22 kw=0.014983076484018266 pf=0.92 conn=delta status=variable vmaxpu=1.5 vminpu=0.92 daily=IP

New load.pip588247-1 phases=1 bus=5001055961.3.1.4 model=2 kv=0.22 kw=0.014983076484018266 pf=0.92 conn=delta status=variable vmaxpu=1.5 vminpu=0.92 daily=IP
New load.pip588247-2 phases=1 bus=5001055961.3.1.4 model=3 kv=0.22 kw=0.014983076484018266 pf=0.92 conn=delta status=variable vmaxpu=1.5 vminpu=0.92 daily=IP

New load.pip588248-1 phases=1 bus=5001055975.3.1.4 model=2 kv=0.22 kw=0.014983076484018266 pf=0.92 conn=delta status=variable vmaxpu=1.5 vminpu=0.92 daily=IP
New load.pip588248-2 phases=1 bus=5001055975.3.1.4 model=3 kv=0.22 kw=0.014983076484018266 pf=0.92 conn=delta status=variable vmaxpu=1.5 vminpu=0.92 daily=IP

New load.pip622917-1 phases=1 bus=5008850356.3.1.4 model=2 kv=0.22 kw=0.037454058219178084 pf=0.92 conn=delta status=variable vmaxpu=1.5 vminpu=0.92 daily=IP
New load.pip622917-2 phases=1 bus=5008850356.3.1.4 model=3 kv=0.22 kw=0.037454058219178084 pf=0.92 conn=delta status=variable vmaxpu=1.5 vminpu=0.92 daily=IP

New load.pip634486-1 phases=1 bus=5008850226.1.2.4 model=2 kv=0.22 kw=0.037454058219178084 pf=0.92 conn=delta status=variable vmaxpu=1.5 vminpu=0.92 daily=IP
New load.pip634486-2 phases=1 bus=5008850226.1.2.4 model=3 kv=0.22 kw=0.037454058219178084 pf=0.92 conn=delta status=variable vmaxpu=1.5 vminpu=0.92 daily=IP

New load.pip635572-1 phases=1 bus=5008850408.2.3.4 model=2 kv=0.22 kw=0.037454058219178084 pf=0.92 conn=delta status=variable vmaxpu=1.5 vminpu=0.92 daily=IP
New load.pip635572-2 phases=1 bus=5008850408.2.3.4 model=3 kv=0.22 kw=0.037454058219178084 pf=0.92 conn=delta status=variable vmaxpu=1.5 vminpu=0.92 daily=IP

New load.pip636881-1 phases=1 bus=5001060581.3.1.4 model=2 kv=0.22 kw=0.00882841324200913 pf=0.92 conn=delta status=variable vmaxpu=1.5 vminpu=0.92 daily=IP
New load.pip636881-2 phases=1 bus=5001060581.3.1.4 model=3 kv=0.22 kw=0.00882841324200913 pf=0.92 conn=delta status=variable vmaxpu=1.5 vminpu=0.92 daily=IP

New load.pip638219-1 phases=1 bus=5001062730.1.2.4 model=2 kv=0.22 kw=0.016052471461187212 pf=0.92 conn=delta status=variable vmaxpu=1.5 vminpu=0.92 daily=IP
New load.pip638219-2 phases=1 bus=5001062730.1.2.4 model=3 kv=0.22 kw=0.016052471461187212 pf=0.92 conn=delta status=variable vmaxpu=1.5 vminpu=0.92 daily=IP

New load.pip639479-1 phases=1 bus=5008967596.3.1.4 model=2 kv=0.22 kw=0.013378190639269408 pf=0.92 conn=delta status=variable vmaxpu=1.5 vminpu=0.92 daily=IP
New load.pip639479-2 phases=1 bus=5008967596.3.1.4 model=3 kv=0.22 kw=0.013378190639269408 pf=0.92 conn=delta status=variable vmaxpu=1.5 vminpu=0.92 daily=IP

New load.pip645619-1 phases=1 bus=5008850406.3.1.4 model=2 kv=0.22 kw=0.037454058219178084 pf=0.92 conn=delta status=variable vmaxpu=1.5 vminpu=0.92 daily=IP
New load.pip645619-2 phases=1 bus=5008850406.3.1.4 model=3 kv=0.22 kw=0.037454058219178084 pf=0.92 conn=delta status=variable vmaxpu=1.5 vminpu=0.92 daily=IP

New load.pip645905-1 phases=1 bus=5008969437.2.3.4 model=2 kv=0.22 kw=0.01070200913242009 pf=0.92 conn=delta status=variable vmaxpu=1.5 vminpu=0.92 daily=IP
New load.pip645905-2 phases=1 bus=5008969437.2.3.4 model=3 kv=0.22 kw=0.01070200913242009 pf=0.92 conn=delta status=variable vmaxpu=1.5 vminpu=0.92 daily=IP

New load.pip652441-1 phases=1 bus=5008850195.1.2.4 model=2 kv=0.22 kw=0.037454058219178084 pf=0.92 conn=delta status=variable vmaxpu=1.5 vminpu=0.92 daily=IP
New load.pip652441-2 phases=1 bus=5008850195.1.2.4 model=3 kv=0.22 kw=0.037454058219178084 pf=0.92 conn=delta status=variable vmaxpu=1.5 vminpu=0.92 daily=IP

New load.pip660627-1 phases=1 bus=5008850346.1.2.4 model=2 kv=0.22 kw=0.037454058219178084 pf=0.92 conn=delta status=variable vmaxpu=1.5 vminpu=0.92 daily=IP
New load.pip660627-2 phases=1 bus=5008850346.1.2.4 model=3 kv=0.22 kw=0.037454058219178084 pf=0.92 conn=delta status=variable vmaxpu=1.5 vminpu=0.92 daily=IP

New load.pip665297-1 phases=1 bus=5008850347.2.3.4 model=2 kv=0.22 kw=0.037454058219178084 pf=0.92 conn=delta status=variable vmaxpu=1.5 vminpu=0.92 daily=IP
New load.pip665297-2 phases=1 bus=5008850347.2.3.4 model=3 kv=0.22 kw=0.037454058219178084 pf=0.92 conn=delta status=variable vmaxpu=1.5 vminpu=0.92 daily=IP

New load.pip665963-1 phases=1 bus=5001062688.1.2.4 model=2 kv=0.22 kw=0.016052471461187212 pf=0.92 conn=delta status=variable vmaxpu=1.5 vminpu=0.92 daily=IP
New load.pip665963-2 phases=1 bus=5001062688.1.2.4 model=3 kv=0.22 kw=0.016052471461187212 pf=0.92 conn=delta status=variable vmaxpu=1.5 vminpu=0.92 daily=IP

New load.pip670476-1 phases=1 bus=5008850328.3.1.4 model=2 kv=0.22 kw=0.037454058219178084 pf=0.92 conn=delta status=variable vmaxpu=1.5 vminpu=0.92 daily=IP
New load.pip670476-2 phases=1 bus=5008850328.3.1.4 model=3 kv=0.22 kw=0.037454058219178084 pf=0.92 conn=delta status=variable vmaxpu=1.5 vminpu=0.92 daily=IP

New load.pip673253-1 phases=1 bus=5001062709.2.3.4 model=2 kv=0.22 kw=0.00882841324200913 pf=0.92 conn=delta status=variable vmaxpu=1.5 vminpu=0.92 daily=IP
New load.pip673253-2 phases=1 bus=5001062709.2.3.4 model=3 kv=0.22 kw=0.00882841324200913 pf=0.92 conn=delta status=variable vmaxpu=1.5 vminpu=0.92 daily=IP

New load.pip674223-1 phases=1 bus=5008848076.3.1.4 model=2 kv=0.22 kw=0.037454058219178084 pf=0.92 conn=delta status=variable vmaxpu=1.5 vminpu=0.92 daily=IP
New load.pip674223-2 phases=1 bus=5008848076.3.1.4 model=3 kv=0.22 kw=0.037454058219178084 pf=0.92 conn=delta status=variable vmaxpu=1.5 vminpu=0.92 daily=IP

New load.pip675558-1 phases=1 bus=5008848043.3.1.4 model=2 kv=0.22 kw=0.037454058219178084 pf=0.92 conn=delta status=variable vmaxpu=1.5 vminpu=0.92 daily=IP
New load.pip675558-2 phases=1 bus=5008848043.3.1.4 model=3 kv=0.22 kw=0.037454058219178084 pf=0.92 conn=delta status=variable vmaxpu=1.5 vminpu=0.92 daily=IP

New load.pip679331-1 phases=1 bus=5008969444.1.2.4 model=2 kv=0.22 kw=0.01070200913242009 pf=0.92 conn=delta status=variable vmaxpu=1.5 vminpu=0.92 daily=IP
New load.pip679331-2 phases=1 bus=5008969444.1.2.4 model=3 kv=0.22 kw=0.01070200913242009 pf=0.92 conn=delta status=variable vmaxpu=1.5 vminpu=0.92 daily=IP

New load.pip680374-1 phases=1 bus=5008848017.1.2.4 model=2 kv=0.22 kw=0.037454058219178084 pf=0.92 conn=delta status=variable vmaxpu=1.5 vminpu=0.92 daily=IP
New load.pip680374-2 phases=1 bus=5008848017.1.2.4 model=3 kv=0.22 kw=0.037454058219178084 pf=0.92 conn=delta status=variable vmaxpu=1.5 vminpu=0.92 daily=IP

New load.pip681821-1 phases=1 bus=5008850340.2.3.4 model=2 kv=0.22 kw=0.037454058219178084 pf=0.92 conn=delta status=variable vmaxpu=1.5 vminpu=0.92 daily=IP
New load.pip681821-2 phases=1 bus=5008850340.2.3.4 model=3 kv=0.22 kw=0.037454058219178084 pf=0.92 conn=delta status=variable vmaxpu=1.5 vminpu=0.92 daily=IP

New load.pip683936-1 phases=1 bus=5008969363.2.3.4 model=2 kv=0.22 kw=0.01070200913242009 pf=0.92 conn=delta status=variable vmaxpu=1.5 vminpu=0.92 daily=IP
New load.pip683936-2 phases=1 bus=5008969363.2.3.4 model=3 kv=0.22 kw=0.01070200913242009 pf=0.92 conn=delta status=variable vmaxpu=1.5 vminpu=0.92 daily=IP

New load.pip684105-1 phases=1 bus=5001062702.1.2.4 model=2 kv=0.22 kw=0.016052471461187212 pf=0.92 conn=delta status=variable vmaxpu=1.5 vminpu=0.92 daily=IP
New load.pip684105-2 phases=1 bus=5001062702.1.2.4 model=3 kv=0.22 kw=0.016052471461187212 pf=0.92 conn=delta status=variable vmaxpu=1.5 vminpu=0.92 daily=IP

New load.pip691554-1 phases=1 bus=5008850331.2.3.4 model=2 kv=0.22 kw=0.037454058219178084 pf=0.92 conn=delta status=variable vmaxpu=1.5 vminpu=0.92 daily=IP
New load.pip691554-2 phases=1 bus=5008850331.2.3.4 model=3 kv=0.22 kw=0.037454058219178084 pf=0.92 conn=delta status=variable vmaxpu=1.5 vminpu=0.92 daily=IP

New load.pip700295-1 phases=1 bus=5008850351.2.3.4 model=2 kv=0.22 kw=0.037454058219178084 pf=0.92 conn=delta status=variable vmaxpu=1.5 vminpu=0.92 daily=IP
New load.pip700295-2 phases=1 bus=5008850351.2.3.4 model=3 kv=0.22 kw=0.037454058219178084 pf=0.92 conn=delta status=variable vmaxpu=1.5 vminpu=0.92 daily=IP

New load.pip704705-1 phases=1 bus=5001057942.1.2.4 model=2 kv=0.22 kw=0.014983076484018266 pf=0.92 conn=delta status=variable vmaxpu=1.5 vminpu=0.92 daily=IP
New load.pip704705-2 phases=1 bus=5001057942.1.2.4 model=3 kv=0.22 kw=0.014983076484018266 pf=0.92 conn=delta status=variable vmaxpu=1.5 vminpu=0.92 daily=IP

New load.pip708394-1 phases=1 bus=5001060616.3.1.4 model=2 kv=0.22 kw=0.00882841324200913 pf=0.92 conn=delta status=variable vmaxpu=1.5 vminpu=0.92 daily=IP
New load.pip708394-2 phases=1 bus=5001060616.3.1.4 model=3 kv=0.22 kw=0.00882841324200913 pf=0.92 conn=delta status=variable vmaxpu=1.5 vminpu=0.92 daily=IP

New load.pip710142-1 phases=1 bus=5001060602.2.3.4 model=2 kv=0.22 kw=0.00882841324200913 pf=0.92 conn=delta status=variable vmaxpu=1.5 vminpu=0.92 daily=IP
New load.pip710142-2 phases=1 bus=5001060602.2.3.4 model=3 kv=0.22 kw=0.00882841324200913 pf=0.92 conn=delta status=variable vmaxpu=1.5 vminpu=0.92 daily=IP

New load.pip715318-1 phases=1 bus=5008850192.2.3.4 model=2 kv=0.22 kw=0.037454058219178084 pf=0.92 conn=delta status=variable vmaxpu=1.5 vminpu=0.92 daily=IP
New load.pip715318-2 phases=1 bus=5008850192.2.3.4 model=3 kv=0.22 kw=0.037454058219178084 pf=0.92 conn=delta status=variable vmaxpu=1.5 vminpu=0.92 daily=IP

New load.pip720668-1 phases=1 bus=5001064550.1.2.4 model=2 kv=0.22 kw=0.016052471461187212 pf=0.92 conn=delta status=variable vmaxpu=1.5 vminpu=0.92 daily=IP
New load.pip720668-2 phases=1 bus=5001064550.1.2.4 model=3 kv=0.22 kw=0.016052471461187212 pf=0.92 conn=delta status=variable vmaxpu=1.5 vminpu=0.92 daily=IP

New load.pip723773-1 phases=1 bus=5001062681.1.2.4 model=2 kv=0.22 kw=0.00882841324200913 pf=0.92 conn=delta status=variable vmaxpu=1.5 vminpu=0.92 daily=IP
New load.pip723773-2 phases=1 bus=5001062681.1.2.4 model=3 kv=0.22 kw=0.00882841324200913 pf=0.92 conn=delta status=variable vmaxpu=1.5 vminpu=0.92 daily=IP

New load.pip729729-1 phases=1 bus=5008968240.1.2.4 model=2 kv=0.22 kw=0.01070200913242009 pf=0.92 conn=delta status=variable vmaxpu=1.5 vminpu=0.92 daily=IP
New load.pip729729-2 phases=1 bus=5008968240.1.2.4 model=3 kv=0.22 kw=0.01070200913242009 pf=0.92 conn=delta status=variable vmaxpu=1.5 vminpu=0.92 daily=IP

New load.pip730006-1 phases=1 bus=5008968237.2.3.4 model=2 kv=0.22 kw=0.01070200913242009 pf=0.92 conn=delta status=variable vmaxpu=1.5 vminpu=0.92 daily=IP
New load.pip730006-2 phases=1 bus=5008968237.2.3.4 model=3 kv=0.22 kw=0.01070200913242009 pf=0.92 conn=delta status=variable vmaxpu=1.5 vminpu=0.92 daily=IP

New load.pip732974-1 phases=1 bus=5008850276.3.1.4 model=2 kv=0.22 kw=0.037454058219178084 pf=0.92 conn=delta status=variable vmaxpu=1.5 vminpu=0.92 daily=IP
New load.pip732974-2 phases=1 bus=5008850276.3.1.4 model=3 kv=0.22 kw=0.037454058219178084 pf=0.92 conn=delta status=variable vmaxpu=1.5 vminpu=0.92 daily=IP

New load.pip737753-1 phases=1 bus=5001204221.3.1.4 model=2 kv=0.22 kw=0.016052471461187212 pf=0.92 conn=delta status=variable vmaxpu=1.5 vminpu=0.92 daily=IP
New load.pip737753-2 phases=1 bus=5001204221.3.1.4 model=3 kv=0.22 kw=0.016052471461187212 pf=0.92 conn=delta status=variable vmaxpu=1.5 vminpu=0.92 daily=IP

New load.pip738870-1 phases=1 bus=5008848063.2.3.4 model=2 kv=0.22 kw=0.037454058219178084 pf=0.92 conn=delta status=variable vmaxpu=1.5 vminpu=0.92 daily=IP
New load.pip738870-2 phases=1 bus=5008848063.2.3.4 model=3 kv=0.22 kw=0.037454058219178084 pf=0.92 conn=delta status=variable vmaxpu=1.5 vminpu=0.92 daily=IP

New load.pip739319-1 phases=1 bus=5008852762.2.3.4 model=2 kv=0.22 kw=0.04414506849315068 pf=0.92 conn=delta status=variable vmaxpu=1.5 vminpu=0.92 daily=IP
New load.pip739319-2 phases=1 bus=5008852762.2.3.4 model=3 kv=0.22 kw=0.04414506849315068 pf=0.92 conn=delta status=variable vmaxpu=1.5 vminpu=0.92 daily=IP

New load.pip739367-1 phases=1 bus=5008848134.3.1.4 model=2 kv=0.22 kw=0.037454058219178084 pf=0.92 conn=delta status=variable vmaxpu=1.5 vminpu=0.92 daily=IP
New load.pip739367-2 phases=1 bus=5008848134.3.1.4 model=3 kv=0.22 kw=0.037454058219178084 pf=0.92 conn=delta status=variable vmaxpu=1.5 vminpu=0.92 daily=IP

New load.pip741209-1 phases=1 bus=5008850360.1.2.4 model=2 kv=0.22 kw=0.037454058219178084 pf=0.92 conn=delta status=variable vmaxpu=1.5 vminpu=0.92 daily=IP
New load.pip741209-2 phases=1 bus=5008850360.1.2.4 model=3 kv=0.22 kw=0.037454058219178084 pf=0.92 conn=delta status=variable vmaxpu=1.5 vminpu=0.92 daily=IP

New load.pip742288-1 phases=1 bus=5008850369.2.3.4 model=2 kv=0.22 kw=0.037454058219178084 pf=0.92 conn=delta status=variable vmaxpu=1.5 vminpu=0.92 daily=IP
New load.pip742288-2 phases=1 bus=5008850369.2.3.4 model=3 kv=0.22 kw=0.037454058219178084 pf=0.92 conn=delta status=variable vmaxpu=1.5 vminpu=0.92 daily=IP

New load.pip747364-1 phases=1 bus=5008968245.2.3.4 model=2 kv=0.22 kw=0.01070200913242009 pf=0.92 conn=delta status=variable vmaxpu=1.5 vminpu=0.92 daily=IP
New load.pip747364-2 phases=1 bus=5008968245.2.3.4 model=3 kv=0.22 kw=0.01070200913242009 pf=0.92 conn=delta status=variable vmaxpu=1.5 vminpu=0.92 daily=IP

New load.pip748731-1 phases=1 bus=5008967600.1.2.4 model=2 kv=0.22 kw=0.013378190639269408 pf=0.92 conn=delta status=variable vmaxpu=1.5 vminpu=0.92 daily=IP
New load.pip748731-2 phases=1 bus=5008967600.1.2.4 model=3 kv=0.22 kw=0.013378190639269408 pf=0.92 conn=delta status=variable vmaxpu=1.5 vminpu=0.92 daily=IP

New load.pip752115-1 phases=1 bus=5001060609.1.2.4 model=2 kv=0.22 kw=0.00882841324200913 pf=0.92 conn=delta status=variable vmaxpu=1.5 vminpu=0.92 daily=IP
New load.pip752115-2 phases=1 bus=5001060609.1.2.4 model=3 kv=0.22 kw=0.00882841324200913 pf=0.92 conn=delta status=variable vmaxpu=1.5 vminpu=0.92 daily=IP

New load.pip753962-1 phases=1 bus=5008850232.2.3.4 model=2 kv=0.22 kw=0.037454058219178084 pf=0.92 conn=delta status=variable vmaxpu=1.5 vminpu=0.92 daily=IP
New load.pip753962-2 phases=1 bus=5008850232.2.3.4 model=3 kv=0.22 kw=0.037454058219178084 pf=0.92 conn=delta status=variable vmaxpu=1.5 vminpu=0.92 daily=IP

New load.pip755818-1 phases=1 bus=5001055905.1.2.4 model=2 kv=0.22 kw=0.014983076484018266 pf=0.92 conn=delta status=variable vmaxpu=1.5 vminpu=0.92 daily=IP
New load.pip755818-2 phases=1 bus=5001055905.1.2.4 model=3 kv=0.22 kw=0.014983076484018266 pf=0.92 conn=delta status=variable vmaxpu=1.5 vminpu=0.92 daily=IP

New load.pip756778-1 phases=1 bus=5008852761.1.2.4 model=2 kv=0.22 kw=0.04414506849315068 pf=0.92 conn=delta status=variable vmaxpu=1.5 vminpu=0.92 daily=IP
New load.pip756778-2 phases=1 bus=5008852761.1.2.4 model=3 kv=0.22 kw=0.04414506849315068 pf=0.92 conn=delta status=variable vmaxpu=1.5 vminpu=0.92 daily=IP

New load.pip758051-1 phases=1 bus=5008848070.3.1.4 model=2 kv=0.22 kw=0.037454058219178084 pf=0.92 conn=delta status=variable vmaxpu=1.5 vminpu=0.92 daily=IP
New load.pip758051-2 phases=1 bus=5008848070.3.1.4 model=3 kv=0.22 kw=0.037454058219178084 pf=0.92 conn=delta status=variable vmaxpu=1.5 vminpu=0.92 daily=IP

New load.pip758364-1 phases=1 bus=5001057928.3.1.4 model=2 kv=0.22 kw=0.014983076484018266 pf=0.92 conn=delta status=variable vmaxpu=1.5 vminpu=0.92 daily=IP
New load.pip758364-2 phases=1 bus=5001057928.3.1.4 model=3 kv=0.22 kw=0.014983076484018266 pf=0.92 conn=delta status=variable vmaxpu=1.5 vminpu=0.92 daily=IP

New load.pip761201-1 phases=1 bus=5001062695.1.2.4 model=2 kv=0.22 kw=0.00882841324200913 pf=0.92 conn=delta status=variable vmaxpu=1.5 vminpu=0.92 daily=IP
New load.pip761201-2 phases=1 bus=5001062695.1.2.4 model=3 kv=0.22 kw=0.00882841324200913 pf=0.92 conn=delta status=variable vmaxpu=1.5 vminpu=0.92 daily=IP

New load.pip762094-1 phases=1 bus=5008852774.3.1.4 model=2 kv=0.22 kw=0.03076687785388128 pf=0.92 conn=delta status=variable vmaxpu=1.5 vminpu=0.92 daily=IP
New load.pip762094-2 phases=1 bus=5008852774.3.1.4 model=3 kv=0.22 kw=0.03076687785388128 pf=0.92 conn=delta status=variable vmaxpu=1.5 vminpu=0.92 daily=IP

New load.pip762218-1 phases=1 bus=5008848035.2.3.4 model=2 kv=0.22 kw=0.037454058219178084 pf=0.92 conn=delta status=variable vmaxpu=1.5 vminpu=0.92 daily=IP
New load.pip762218-2 phases=1 bus=5008848035.2.3.4 model=3 kv=0.22 kw=0.037454058219178084 pf=0.92 conn=delta status=variable vmaxpu=1.5 vminpu=0.92 daily=IP

New load.pip766126-1 phases=1 bus=5008852763.3.1.4 model=2 kv=0.22 kw=0.04414506849315068 pf=0.92 conn=delta status=variable vmaxpu=1.5 vminpu=0.92 daily=IP
New load.pip766126-2 phases=1 bus=5008852763.3.1.4 model=3 kv=0.22 kw=0.04414506849315068 pf=0.92 conn=delta status=variable vmaxpu=1.5 vminpu=0.92 daily=IP

New load.pip768955-1 phases=1 bus=5008852771.2.3.4 model=2 kv=0.22 kw=0.03076687785388128 pf=0.92 conn=delta status=variable vmaxpu=1.5 vminpu=0.92 daily=IP
New load.pip768955-2 phases=1 bus=5008852771.2.3.4 model=3 kv=0.22 kw=0.03076687785388128 pf=0.92 conn=delta status=variable vmaxpu=1.5 vminpu=0.92 daily=IP

New load.pip774860-1 phases=1 bus=5008850253.3.1.4 model=2 kv=0.22 kw=0.037454058219178084 pf=0.92 conn=delta status=variable vmaxpu=1.5 vminpu=0.92 daily=IP
New load.pip774860-2 phases=1 bus=5008850253.3.1.4 model=3 kv=0.22 kw=0.037454058219178084 pf=0.92 conn=delta status=variable vmaxpu=1.5 vminpu=0.92 daily=IP

New load.pip775403-1 phases=1 bus=5008850343.2.3.4 model=2 kv=0.22 kw=0.037454058219178084 pf=0.92 conn=delta status=variable vmaxpu=1.5 vminpu=0.92 daily=IP
New load.pip775403-2 phases=1 bus=5008850343.2.3.4 model=3 kv=0.22 kw=0.037454058219178084 pf=0.92 conn=delta status=variable vmaxpu=1.5 vminpu=0.92 daily=IP

New load.pip778235-1 phases=1 bus=5008850333.1.2.4 model=2 kv=0.22 kw=0.037454058219178084 pf=0.92 conn=delta status=variable vmaxpu=1.5 vminpu=0.92 daily=IP
New load.pip778235-2 phases=1 bus=5008850333.1.2.4 model=3 kv=0.22 kw=0.037454058219178084 pf=0.92 conn=delta status=variable vmaxpu=1.5 vminpu=0.92 daily=IP

New load.pip779499-1 phases=1 bus=5008852768.2.3.4 model=2 kv=0.22 kw=0.03076687785388128 pf=0.92 conn=delta status=variable vmaxpu=1.5 vminpu=0.92 daily=IP
New load.pip779499-2 phases=1 bus=5008852768.2.3.4 model=3 kv=0.22 kw=0.03076687785388128 pf=0.92 conn=delta status=variable vmaxpu=1.5 vminpu=0.92 daily=IP

New load.pip779707-1 phases=1 bus=5008850249.2.3.4 model=2 kv=0.22 kw=0.037454058219178084 pf=0.92 conn=delta status=variable vmaxpu=1.5 vminpu=0.92 daily=IP
New load.pip779707-2 phases=1 bus=5008850249.2.3.4 model=3 kv=0.22 kw=0.037454058219178084 pf=0.92 conn=delta status=variable vmaxpu=1.5 vminpu=0.92 daily=IP

New load.pip779989-1 phases=1 bus=5008852779.3.1.4 model=2 kv=0.22 kw=0.03076687785388128 pf=0.92 conn=delta status=variable vmaxpu=1.5 vminpu=0.92 daily=IP
New load.pip779989-2 phases=1 bus=5008852779.3.1.4 model=3 kv=0.22 kw=0.03076687785388128 pf=0.92 conn=delta status=variable vmaxpu=1.5 vminpu=0.92 daily=IP

New load.pip780100-1 phases=1 bus=5008852778.2.3.4 model=2 kv=0.22 kw=0.03076687785388128 pf=0.92 conn=delta status=variable vmaxpu=1.5 vminpu=0.92 daily=IP
New load.pip780100-2 phases=1 bus=5008852778.2.3.4 model=3 kv=0.22 kw=0.03076687785388128 pf=0.92 conn=delta status=variable vmaxpu=1.5 vminpu=0.92 daily=IP

New load.pip785164-1 phases=1 bus=5008852760.3.1.4 model=2 kv=0.22 kw=0.04414506849315068 pf=0.92 conn=delta status=variable vmaxpu=1.5 vminpu=0.92 daily=IP
New load.pip785164-2 phases=1 bus=5008852760.3.1.4 model=3 kv=0.22 kw=0.04414506849315068 pf=0.92 conn=delta status=variable vmaxpu=1.5 vminpu=0.92 daily=IP

New load.pip785167-1 phases=1 bus=5008969356.1.2.4 model=2 kv=0.22 kw=0.01070200913242009 pf=0.92 conn=delta status=variable vmaxpu=1.5 vminpu=0.92 daily=IP
New load.pip785167-2 phases=1 bus=5008969356.1.2.4 model=3 kv=0.22 kw=0.01070200913242009 pf=0.92 conn=delta status=variable vmaxpu=1.5 vminpu=0.92 daily=IP

New load.pip785289-1 phases=1 bus=5001204228.3.1.4 model=2 kv=0.22 kw=0.016052471461187212 pf=0.92 conn=delta status=variable vmaxpu=1.5 vminpu=0.92 daily=IP
New load.pip785289-2 phases=1 bus=5001204228.3.1.4 model=3 kv=0.22 kw=0.016052471461187212 pf=0.92 conn=delta status=variable vmaxpu=1.5 vminpu=0.92 daily=IP

New load.pip786554-1 phases=1 bus=5008852767.1.2.4 model=2 kv=0.22 kw=0.03076687785388128 pf=0.92 conn=delta status=variable vmaxpu=1.5 vminpu=0.92 daily=IP
New load.pip786554-2 phases=1 bus=5008852767.1.2.4 model=3 kv=0.22 kw=0.03076687785388128 pf=0.92 conn=delta status=variable vmaxpu=1.5 vminpu=0.92 daily=IP

New load.pip786847-1 phases=1 bus=5008848052.3.1.4 model=2 kv=0.22 kw=0.037454058219178084 pf=0.92 conn=delta status=variable vmaxpu=1.5 vminpu=0.92 daily=IP
New load.pip786847-2 phases=1 bus=5008848052.3.1.4 model=3 kv=0.22 kw=0.037454058219178084 pf=0.92 conn=delta status=variable vmaxpu=1.5 vminpu=0.92 daily=IP

New load.pip788725-1 phases=1 bus=5008852776.2.3.4 model=2 kv=0.22 kw=0.03076687785388128 pf=0.92 conn=delta status=variable vmaxpu=1.5 vminpu=0.92 daily=IP
New load.pip788725-2 phases=1 bus=5008852776.2.3.4 model=3 kv=0.22 kw=0.03076687785388128 pf=0.92 conn=delta status=variable vmaxpu=1.5 vminpu=0.92 daily=IP

New load.pip796373-1 phases=1 bus=5008850348.3.1.4 model=2 kv=0.22 kw=0.037454058219178084 pf=0.92 conn=delta status=variable vmaxpu=1.5 vminpu=0.92 daily=IP
New load.pip796373-2 phases=1 bus=5008850348.3.1.4 model=3 kv=0.22 kw=0.037454058219178084 pf=0.92 conn=delta status=variable vmaxpu=1.5 vminpu=0.92 daily=IP

New load.pip800430-1 phases=1 bus=5008852769.3.1.4 model=2 kv=0.22 kw=0.03076687785388128 pf=0.92 conn=delta status=variable vmaxpu=1.5 vminpu=0.92 daily=IP
New load.pip800430-2 phases=1 bus=5008852769.3.1.4 model=3 kv=0.22 kw=0.03076687785388128 pf=0.92 conn=delta status=variable vmaxpu=1.5 vminpu=0.92 daily=IP

New load.pip800580-1 phases=1 bus=5008848057.3.1.4 model=2 kv=0.22 kw=0.037454058219178084 pf=0.92 conn=delta status=variable vmaxpu=1.5 vminpu=0.92 daily=IP
New load.pip800580-2 phases=1 bus=5008848057.3.1.4 model=3 kv=0.22 kw=0.037454058219178084 pf=0.92 conn=delta status=variable vmaxpu=1.5 vminpu=0.92 daily=IP

New load.pip801066-1 phases=1 bus=5008848148.1.2.4 model=2 kv=0.22 kw=0.037454058219178084 pf=0.92 conn=delta status=variable vmaxpu=1.5 vminpu=0.92 daily=IP
New load.pip801066-2 phases=1 bus=5008848148.1.2.4 model=3 kv=0.22 kw=0.037454058219178084 pf=0.92 conn=delta status=variable vmaxpu=1.5 vminpu=0.92 daily=IP

New load.pip802242-1 phases=1 bus=5008968233.3.1.4 model=2 kv=0.22 kw=0.01070200913242009 pf=0.92 conn=delta status=variable vmaxpu=1.5 vminpu=0.92 daily=IP
New load.pip802242-2 phases=1 bus=5008968233.3.1.4 model=3 kv=0.22 kw=0.01070200913242009 pf=0.92 conn=delta status=variable vmaxpu=1.5 vminpu=0.92 daily=IP

New load.pip803982-1 phases=1 bus=5008850326.1.2.4 model=2 kv=0.22 kw=0.037454058219178084 pf=0.92 conn=delta status=variable vmaxpu=1.5 vminpu=0.92 daily=IP
New load.pip803982-2 phases=1 bus=5008850326.1.2.4 model=3 kv=0.22 kw=0.037454058219178084 pf=0.92 conn=delta status=variable vmaxpu=1.5 vminpu=0.92 daily=IP

New load.pip810335-1 phases=1 bus=5008850290.1.2.4 model=2 kv=0.22 kw=0.037454058219178084 pf=0.92 conn=delta status=variable vmaxpu=1.5 vminpu=0.92 daily=IP