New line.ram2923932 phases=3 bus1=2072872.1.2.4 bus2=4002923932.1.2.4 length=0.017 units=km linecode=CABBTG05_4_2_3
New line.ram2923939 phases=3 bus1=2072886.3.1.4 bus2=4002923939.3.1.4 length=0.017 units=km linecode=CABBTG05_4_2_3
New line.ram2923946 phases=3 bus1=2072886.3.1.4 bus2=4002923946.3.1.4 length=0.017 units=km linecode=CABBTG05_4_2_3
New line.ram2923953 phases=3 bus1=2072886.3.1.4 bus2=4002923953.3.1.4 length=0.017 units=km linecode=CABBTG04_4_2_3
New line.ram2923960 phases=3 bus1=2072886.2.3.4 bus2=4002923960.2.3.4 length=0.017 units=km linecode=CABBTG04_4_2_3
New line.ram2923967 phases=3 bus1=2072886.2.3.4 bus2=4002923967.2.3.4 length=0.017 units=km linecode=CABBTG04_4_2_3
New line.ram2923974 phases=3 bus1=2072893.2.3.4 bus2=4002923974.2.3.4 length=0.017 units=km linecode=CABBTG05_4_2_3
New line.ram2923981 phases=3 bus1=2072893.3.1.4 bus2=4002923981.3.1.4 length=0.017 units=km linecode=CABBTG05_4_2_3
New line.ram2923988 phases=3 bus1=2072893.2.3.4 bus2=4002923988.2.3.4 length=0.017 units=km linecode=CABBTG05_4_2_3
New line.ram2923995 phases=3 bus1=2072893.1.2.4 bus2=4002923995.1.2.4 length=0.017 units=km linecode=CABBTG05_4_2_3
New line.ram2924002 phases=4 bus1=2072886.1.2.3.4 bus2=4002924002.1.2.3.4 length=0.017 units=km linecode=CABBTG06_4_3_4
New line.ram2924009 phases=3 bus1=2072900.3.1.4 bus2=4002924009.3.1.4 length=0.017 units=km linecode=CABBTG05_4_2_3
New line.ram2924016 phases=3 bus1=2072928.2.3.4 bus2=4002924016.2.3.4 length=0.017 units=km linecode=CABBTG04_4_2_3
New line.ram2924023 phases=3 bus1=2072928.3.1.4 bus2=4002924023.3.1.4 length=0.017 units=km linecode=CABBTG04_4_2_3
New line.ram2924037 phases=4 bus1=2072928.1.2.3.4 bus2=4002924037.1.2.3.4 length=0.017 units=km linecode=CABBTG07_4_3_4
New line.ram2924044 phases=3 bus1=2072935.1.2.4 bus2=4002924044.1.2.4 length=0.017 units=km linecode=CABBTG05_4_2_3
New line.ram2924051 phases=4 bus1=2072935.1.2.3.4 bus2=4002924051.1.2.3.4 length=0.017 units=km linecode=CABBTG06_4_3_4
New line.ram2924058 phases=3 bus1=2072928.3.1.4 bus2=4002924058.3.1.4 length=0.017 units=km linecode=CABBTG04_4_2_3
New line.ram2924065 phases=3 bus1=2072942.1.2.4 bus2=4002924065.1.2.4 length=0.017 units=km linecode=CABBTG05_4_2_3
New line.ram2924072 phases=3 bus1=2072942.2.3.4 bus2=4002924072.2.3.4 length=0.017 units=km linecode=CABBTG05_4_2_3
New line.ram2924086 phases=3 bus1=2072949.1.2.4 bus2=4002924086.1.2.4 length=0.017 units=km linecode=CABBTG04_4_2_3
New line.ram2924107 phases=4 bus1=2072949.1.2.3.4 bus2=4002924107.1.2.3.4 length=0.017 units=km linecode=CABBTG11_4_3_4
New line.ram2924114 phases=3 bus1=2072949.2.3.4 bus2=4002924114.2.3.4 length=0.017 units=km linecode=CABBTG04_4_2_3
New line.ram2924121 phases=3 bus1=2072956.2.3.4 bus2=4002924121.2.3.4 length=0.017 units=km linecode=CABBTG04_4_2_3
New line.ram2924128 phases=3 bus1=2072956.3.1.4 bus2=4002924128.3.1.4 length=0.017 units=km linecode=CABBTG05_4_2_3
New line.ram2924135 phases=3 bus1=2072956.1.2.4 bus2=4002924135.1.2.4 length=0.017 units=km linecode=CABBTG04_4_2_3
New line.ram2924142 phases=4 bus1=2072963.1.2.3.4 bus2=4002924142.1.2.3.4 length=0.017 units=km linecode=CABBTG11_4_3_4
New line.ram2924149 phases=3 bus1=2072963.3.1.4 bus2=4002924149.3.1.4 length=0.017 units=km linecode=CABBTG04_4_2_3
New line.ram2924156 phases=3 bus1=2072963.2.3.4 bus2=4002924156.2.3.4 length=0.017 units=km linecode=CABBTG04_4_2_3
New line.ram2924163 phases=3 bus1=2072970.1.2.4 bus2=4002924163.1.2.4 length=0.017 units=km linecode=CABBTG04_4_2_3
New line.ram2924170 phases=3 bus1=2072970.1.2.4 bus2=4002924170.1.2.4 length=0.017 units=km linecode=CABBTG05_4_2_3
New line.ram2924177 phases=3 bus1=2072970.2.3.4 bus2=4002924177.2.3.4 length=0.017 units=km linecode=CABBTG05_4_2_3
New line.ram2924184 phases=3 bus1=2072970.2.3.4 bus2=4002924184.2.3.4 length=0.017 units=km linecode=CABBTG05_4_2_3
New line.ram2924191 phases=3 bus1=2072977.2.3.4 bus2=4002924191.2.3.4 length=0.017 units=km linecode=CABBTG04_4_2_3
New line.ram2924198 phases=3 bus1=2072977.2.3.4 bus2=4002924198.2.3.4 length=0.017 units=km linecode=CABBTG04_4_2_3
New line.ram2924205 phases=3 bus1=2072984.1.2.4 bus2=4002924205.1.2.4 length=0.017 units=km linecode=CABBTG05_4_2_3
New line.ram2924212 phases=3 bus1=2072984.2.3.4 bus2=4002924212.2.3.4 length=0.017 units=km linecode=CABBTG05_4_2_3
New line.ram2924219 phases=3 bus1=2072998.3.1.4 bus2=4002924219.3.1.4 length=0.017 units=km linecode=CABBTG04_4_2_3
New line.ram2924226 phases=3 bus1=2072998.3.1.4 bus2=4002924226.3.1.4 length=0.017 units=km linecode=CABBTG04_4_2_3
New line.ram2924233 phases=4 bus1=2072998.1.2.3.4 bus2=4002924233.1.2.3.4 length=0.017 units=km linecode=CABBTG07_4_3_4
New line.ram2924240 phases=3 bus1=2072998.1.2.4 bus2=4002924240.1.2.4 length=0.017 units=km linecode=CABBTG04_4_2_3
New line.ram2924247 phases=3 bus1=2073005.3.1.4 bus2=4002924247.3.1.4 length=0.017 units=km linecode=CABBTG04_4_2_3
New line.ram2924254 phases=3 bus1=2073012.1.2.4 bus2=4002924254.1.2.4 length=0.017 units=km linecode=CABBTG05_4_2_3
New line.ram2924261 phases=3 bus1=2073012.1.2.4 bus2=4002924261.1.2.4 length=0.017 units=km linecode=CABBTG05_4_2_3
New line.ram2924268 phases=3 bus1=2073026.2.3.4 bus2=4002924268.2.3.4 length=0.017 units=km linecode=CABBT801_4_2_3
New line.ram2924275 phases=3 bus1=2073026.2.3.4 bus2=4002924275.2.3.4 length=0.017 units=km linecode=CABBTG05_4_2_3
New line.ram2924282 phases=3 bus1=2072998.2.3.4 bus2=4002924282.2.3.4 length=0.017 units=km linecode=CABBTG04_4_2_3
New line.ram2924289 phases=4 bus1=2073026.1.2.3.4 bus2=4002924289.1.2.3.4 length=0.017 units=km linecode=CABBTG06_4_3_4
New line.ram2924296 phases=4 bus1=2073026.1.2.3.4 bus2=4002924296.1.2.3.4 length=0.017 units=km linecode=CABBTG11_4_3_4
New line.ram2924303 phases=4 bus1=2073026.1.2.3.4 bus2=4002924303.1.2.3.4 length=0.017 units=km linecode=CABBTG11_4_3_4
New line.ram2929126 phases=3 bus1=2073019.1.2.4 bus2=4002929126.1.2.4 length=0.017 units=km linecode=CABBTG05_4_2_3
New line.ram2929140 phases=3 bus1=2073019.3.1.4 bus2=4002929140.3.1.4 length=0.017 units=km linecode=CABBTG05_4_2_3
New line.ram2929147 phases=3 bus1=2073019.1.2.4 bus2=4002929147.1.2.4 length=0.017 units=km linecode=CABBTG05_4_2_3
New line.ram2929154 phases=3 bus1=2073019.2.3.4 bus2=4002929154.2.3.4 length=0.017 units=km linecode=CABBTG05_4_2_3
New line.ram2929196 phases=3 bus1=2319013.2.3.4 bus2=4002929196.2.3.4 length=0.017 units=km linecode=CABBTG05_4_2_3
New line.ram2929203 phases=3 bus1=2319013.2.3.4 bus2=4002929203.2.3.4 length=0.017 units=km linecode=CABBTG05_4_2_3
New line.ram2929210 phases=3 bus1=2319013.3.1.4 bus2=4002929210.3.1.4 length=0.017 units=km linecode=CABBTG05_4_2_3
New line.ram2933788 phases=3 bus1=2078619.1.2.4 bus2=4002933788.1.2.4 length=0.017 units=km linecode=CABBTG05_4_2_3
New line.ram2933795 phases=3 bus1=2078619.3.1.4 bus2=4002933795.3.1.4 length=0.017 units=km linecode=CABBTG05_4_2_3
New line.ram2933802 phases=3 bus1=2078619.3.1.4 bus2=4002933802.3.1.4 length=0.017 units=km linecode=CABBTG05_4_2_3
New line.ram2933809 phases=4 bus1=2078633.1.2.3.4 bus2=4002933809.1.2.3.4 length=0.017 units=km linecode=CABBTG07_4_3_4
New line.ram2933816 phases=4 bus1=2078633.1.2.3.4 bus2=4002933816.1.2.3.4 length=0.017 units=km linecode=CABBTG07_4_3_4
New line.ram2933823 phases=4 bus1=2078640.1.2.3.4 bus2=4002933823.1.2.3.4 length=0.017 units=km linecode=CABBTG06_4_3_4
New line.ram2933830 phases=3 bus1=2078640.2.3.4 bus2=4002933830.2.3.4 length=0.017 units=km linecode=CABBTG05_4_2_3
New line.ram2933844 phases=3 bus1=2078640.1.2.4 bus2=4002933844.1.2.4 length=0.017 units=km linecode=CABBTG05_4_2_3
New line.ram2933858 phases=2 bus1=2078668.2.4 bus2=4002933858.2.4 length=0.017 units=km linecode=CABBTG01_4_1_2
New line.ram2936917 phases=3 bus1=2080432.3.1.4 bus2=4002936917.3.1.4 length=0.017 units=km linecode=CABBTG05_4_2_3
New line.ram2936924 phases=3 bus1=2080432.1.2.4 bus2=4002936924.1.2.4 length=0.017 units=km linecode=CABBTG05_4_2_3
New line.ram2936931 phases=3 bus1=2080432.3.1.4 bus2=4002936931.3.1.4 length=0.017 units=km linecode=CABBTG05_4_2_3
New line.ram2936938 phases=3 bus1=2080432.1.2.4 bus2=4002936938.1.2.4 length=0.017 units=km linecode=CABBTG05_4_2_3
New line.ram2936945 phases=3 bus1=2080446.1.2.4 bus2=4002936945.1.2.4 length=0.017 units=km linecode=CABBTG05_4_2_3
New line.ram2936952 phases=3 bus1=2080446.2.3.4 bus2=4002936952.2.3.4 length=0.017 units=km linecode=CABBTG05_4_2_3
New line.ram2936959 phases=3 bus1=2080446.1.2.4 bus2=4002936959.1.2.4 length=0.017 units=km linecode=CABBTG05_4_2_3
New line.ram2936966 phases=3 bus1=2080446.2.3.4 bus2=4002936966.2.3.4 length=0.017 units=km linecode=CABBTG05_4_2_3
New line.ram2936973 phases=3 bus1=2080453.1.2.4 bus2=4002936973.1.2.4 length=0.017 units=km linecode=CABBTG05_4_2_3
New line.ram2936980 phases=3 bus1=2080453.1.2.4 bus2=4002936980.1.2.4 length=0.017 units=km linecode=CABBTG05_4_2_3
New line.ram2936987 phases=3 bus1=2080453.1.2.4 bus2=4002936987.1.2.4 length=0.017 units=km linecode=CABBTG05_4_2_3
New line.ram2936994 phases=3 bus1=2080453.3.1.4 bus2=4002936994.3.1.4 length=0.017 units=km linecode=CABBTG05_4_2_3
New line.ram2937001 phases=3 bus1=2080453.3.1.4 bus2=4002937001.3.1.4 length=0.017 units=km linecode=CABBTG05_4_2_3
New line.ram2937008 phases=3 bus1=2080453.2.3.4 bus2=4002937008.2.3.4 length=0.017 units=km linecode=CABBTG05_4_2_3
New line.ram2937015 phases=3 bus1=2080453.1.2.4 bus2=4002937015.1.2.4 length=0.017 units=km linecode=CABBTG05_4_2_3
New line.ram2937022 phases=3 bus1=2080453.2.3.4 bus2=4002937022.2.3.4 length=0.017 units=km linecode=CABBTG05_4_2_3
New line.ram2937029 phases=3 bus1=2080460.2.3.4 bus2=4002937029.2.3.4 length=0.017 units=km linecode=CABBTG05_4_2_3
New line.ram2937036 phases=3 bus1=2080460.2.3.4 bus2=4002937036.2.3.4 length=0.017 units=km linecode=CABBTG05_4_2_3
New line.ram2937043 phases=3 bus1=2080460.2.3.4 bus2=4002937043.2.3.4 length=0.017 units=km linecode=CABBTG05_4_2_3
New line.ram2937050 phases=3 bus1=2080460.3.1.4 bus2=4002937050.3.1.4 length=0.017 units=km linecode=CABBTG05_4_2_3
New line.ram2937057 phases=3 bus1=2080467.1.2.4 bus2=4002937057.1.2.4 length=0.017 units=km linecode=CABBTG05_4_2_3
New line.ram2937064 phases=3 bus1=2080467.2.3.4 bus2=4002937064.2.3.4 length=0.017 units=km linecode=CABBTG05_4_2_3
New line.ram2937071 phases=3 bus1=2080467.1.2.4 bus2=4002937071.1.2.4 length=0.017 units=km linecode=CABBTG05_4_2_3
New line.ram2937078 phases=3 bus1=2080467.2.3.4 bus2=4002937078.2.3.4 length=0.017 units=km linecode=CABBTG05_4_2_3
New line.ram2937085 phases=3 bus1=2080467.1.2.4 bus2=4002937085.1.2.4 length=0.017 units=km linecode=CABBTG05_4_2_3
New line.ram2937092 phases=3 bus1=2080467.1.2.4 bus2=4002937092.1.2.4 length=0.017 units=km linecode=CABBTG05_4_2_3
New line.ram2937099 phases=4 bus1=2080467.1.2.3.4 bus2=4002937099.1.2.3.4 length=0.017 units=km linecode=CABBTG07_4_3_4
New line.ram2937106 phases=3 bus1=2080467.1.2.4 bus2=4002937106.1.2.4 length=0.017 units=km linecode=CABBTG05_4_2_3
New line.ram2937113 phases=3 bus1=2080474.3.1.4 bus2=4002937113.3.1.4 length=0.017 units=km linecode=CABBTG05_4_2_3
New line.ram2937120 phases=3 bus1=2080474.3.1.4 bus2=4002937120.3.1.4 length=0.017 units=km linecode=CABBTG05_4_2_3
New line.ram2937127 phases=3 bus1=2080474.1.2.4 bus2=4002937127.1.2.4 length=0.017 units=km linecode=CABBTG05_4_2_3
New line.ram2937134 phases=3 bus1=2080474.1.2.4 bus2=4002937134.1.2.4 length=0.017 units=km linecode=CABBTG05_4_2_3
New line.ram2937141 phases=4 bus1=2080481.1.2.3.4 bus2=4002937141.1.2.3.4 length=0.017 units=km linecode=CABBTG07_4_3_4
New line.ram2937148 phases=4 bus1=2080502.1.2.3.4 bus2=4002937148.1.2.3.4 length=0.017 units=km linecode=CABBTG07_4_3_4
New line.ram2951624 phases=3 bus1=2091191.3.1.4 bus2=4002951624.3.1.4 length=0.017 units=km linecode=CABBTG05_4_2_3
New line.ram2951631 phases=3 bus1=2091191.2.3.4 bus2=4002951631.2.3.4 length=0.017 units=km linecode=CABBTG05_4_2_3
New line.ram2951638 phases=3 bus1=2091233.3.1.4 bus2=4002951638.3.1.4 length=0.017 units=km linecode=CABBTG05_4_2_3
New line.ram2951652 phases=3 bus1=2091198.3.1.4 bus2=4002951652.3.1.4 length=0.017 units=km linecode=CABBTG05_4_2_3
New line.ram2951659 phases=3 bus1=2091198.3.1.4 bus2=4002951659.3.1.4 length=0.017 units=km linecode=CABBTG05_4_2_3
New line.ram2951666 phases=3 bus1=173515785.2.3.4 bus2=4002951666.2.3.4 length=0.017 units=km linecode=CABBTG05_4_2_3
New line.ram2951673 phases=4 bus1=2091198.1.2.3.4 bus2=4002951673.1.2.3.4 length=0.017 units=km linecode=CABBTG07_4_3_4
New line.ram2951680 phases=3 bus1=2091198.1.2.4 bus2=4002951680.1.2.4 length=0.017 units=km linecode=CABBTG05_4_2_3
New line.ram2951687 phases=3 bus1=2091205.1.2.4 bus2=4002951687.1.2.4 length=0.017 units=km linecode=CABBTG05_4_2_3
New line.ram2951694 phases=3 bus1=2091205.3.1.4 bus2=4002951694.3.1.4 length=0.017 units=km linecode=CABBTG05_4_2_3
New line.ram2951701 phases=3 bus1=2091205.2.3.4 bus2=4002951701.2.3.4 length=0.017 units=km linecode=CABBTG05_4_2_3
New line.ram2951708 phases=4 bus1=2091212.1.2.3.4 bus2=4002951708.1.2.3.4 length=0.017 units=km linecode=CABBT514_7_3_4
New line.ram2951715 phases=3 bus1=2091212.2.3.4 bus2=4002951715.2.3.4 length=0.017 units=km linecode=CABBTG05_4_2_3
New line.ram2951722 phases=4 bus1=2091212.1.2.3.4 bus2=4002951722.1.2.3.4 length=0.017 units=km linecode=CABBTG07_4_3_4
New line.ram2951729 phases=3 bus1=2091212.1.2.4 bus2=4002951729.1.2.4 length=0.017 units=km linecode=CABBTG05_4_2_3
New line.ram2951736 phases=4 bus1=2091212.1.2.3.4 bus2=4002951736.1.2.3.4 length=0.017 units=km linecode=CABBTG07_4_3_4
New line.ram2951743 phases=4 bus1=2091212.1.2.3.4 bus2=4002951743.1.2.3.4 length=0.017 units=km linecode=CABBTG06_4_3_4
New line.ram2951750 phases=3 bus1=2091226.2.3.4 bus2=4002951750.2.3.4 length=0.017 units=km linecode=CABBTG05_4_2_3
New line.ram2951757 phases=4 bus1=2091219.1.2.3.4 bus2=4002951757.1.2.3.4 length=0.017 units=km linecode=CABBTG07_4_3_4
New line.ram2951764 phases=3 bus1=2091219.2.3.4 bus2=4002951764.2.3.4 length=0.017 units=km linecode=CABBTG05_4_2_3
New line.ram2951771 phases=4 bus1=2091219.1.2.3.4 bus2=4002951771.1.2.3.4 length=0.017 units=km linecode=CABBT514_7_3_4
New line.ram2951778 phases=4 bus1=2091219.1.2.3.4 bus2=4002951778.1.2.3.4 length=0.017 units=km linecode=CABBTG07_4_3_4
New line.ram2951785 phases=4 bus1=2091226.1.2.3.4 bus2=4002951785.1.2.3.4 length=0.017 units=km linecode=CABBT514_7_3_4
New line.ram2951792 phases=4 bus1=2091226.1.2.3.4 bus2=4002951792.1.2.3.4 length=0.017 units=km linecode=CABBTG07_4_3_4
New line.ram2951799 phases=3 bus1=2091226.2.3.4 bus2=4002951799.2.3.4 length=0.017 units=km linecode=CABBTG05_4_2_3
New line.ram2952590 phases=4 bus1=3155590.1.2.3.4 bus2=4002952590.1.2.3.4 length=0.017 units=km linecode=CABBTG07_4_3_4
New line.ram2952611 phases=3 bus1=3155590.1.2.4 bus2=4002952611.1.2.4 length=0.017 units=km linecode=CABBTG05_4_2_3
New line.ram2952618 phases=4 bus1=2091800.1.2.3.4 bus2=4002952618.1.2.3.4 length=0.017 units=km linecode=CABBTG07_4_3_4
New line.ram2952625 phases=3 bus1=2091800.2.3.4 bus2=4002952625.2.3.4 length=0.017 units=km linecode=CABBTG05_4_2_3
New line.ram2952632 phases=4 bus1=2091800.1.2.3.4 bus2=4002952632.1.2.3.4 length=0.017 units=km linecode=CABBTG07_4_3_4
New line.ram2955243 phases=4 bus1=2094236.1.2.3.4 bus2=4002955243.1.2.3.4 length=0.017 units=km linecode=CABBTG07_4_3_4
New line.ram2955250 phases=3 bus1=2094236.3.1.4 bus2=4002955250.3.1.4 length=0.017 units=km linecode=CABBTG05_4_2_3
New line.ram2955257 phases=4 bus1=2094236.1.2.3.4 bus2=4002955257.1.2.3.4 length=0.017 units=km linecode=CABBTG07_4_3_4
New line.ram2955264 phases=4 bus1=2094236.1.2.3.4 bus2=4002955264.1.2.3.4 length=0.017 units=km linecode=CABBTG07_4_3_4
New line.ram2955271 phases=3 bus1=2094243.2.3.4 bus2=4002955271.2.3.4 length=0.017 units=km linecode=CABBTG05_4_2_3
New line.ram2955278 phases=4 bus1=2094243.1.2.3.4 bus2=4002955278.1.2.3.4 length=0.017 units=km linecode=CABBTG07_4_3_4
New line.ram2955285 phases=4 bus1=2094250.1.2.3.4 bus2=4002955285.1.2.3.4 length=0.017 units=km linecode=CABBTG07_4_3_4
New line.ram2955292 phases=3 bus1=2094250.2.3.4 bus2=4002955292.2.3.4 length=0.017 units=km linecode=CABBTG05_4_2_3
New line.ram2955299 phases=4 bus1=2094250.1.2.3.4 bus2=4002955299.1.2.3.4 length=0.017 units=km linecode=CABBTG07_4_3_4
New line.ram2955306 phases=4 bus1=2094257.1.2.3.4 bus2=4002955306.1.2.3.4 length=0.017 units=km linecode=CABBTG06_4_3_4
New line.ram2955313 phases=4 bus1=2094264.1.2.3.4 bus2=4002955313.1.2.3.4 length=0.017 units=km linecode=CABBTG06_4_3_4
New line.ram2955320 phases=4 bus1=2094264.1.2.3.4 bus2=4002955320.1.2.3.4 length=0.017 units=km linecode=CABBTG07_4_3_4
New line.ram2955327 phases=3 bus1=2094264.1.2.4 bus2=4002955327.1.2.4 length=0.017 units=km linecode=CABBTG05_4_2_3
New line.ram2955334 phases=3 bus1=2094264.2.3.4 bus2=4002955334.2.3.4 length=0.017 units=km linecode=CABBTG05_4_2_3
New line.ram2955341 phases=4 bus1=2094264.1.2.3.4 bus2=4002955341.1.2.3.4 length=0.017 units=km linecode=CABBTG07_4_3_4
New line.ram2955348 phases=4 bus1=2094264.1.2.3.4 bus2=4002955348.1.2.3.4 length=0.017 units=km linecode=CABBTG07_4_3_4
New line.ram2955355 phases=4 bus1=2094271.1.2.3.4 bus2=4002955355.1.2.3.4 length=0.017 units=km linecode=CABBTG07_4_3_4
New line.ram2955362 phases=3 bus1=2094271.2.3.4 bus2=4002955362.2.3.4 length=0.017 units=km linecode=CABBTG05_4_2_3
New line.ram2955369 phases=3 bus1=2094271.1.2.4 bus2=4002955369.1.2.4 length=0.017 units=km linecode=CABBTG05_4_2_3
New line.ram2955376 phases=4 bus1=2094271.1.2.3.4 bus2=4002955376.1.2.3.4 length=0.017 units=km linecode=CABBTG09_4_3_4
New line.ram2957007 phases=3 bus1=2095083.1.2.4 bus2=4002957007.1.2.4 length=0.017 units=km linecode=CABBTG05_4_2_3
New line.ram2957014 phases=3 bus1=2095097.1.2.4 bus2=4002957014.1.2.4 length=0.017 units=km linecode=CABBTG05_4_2_3
New line.ram2957021 phases=4 bus1=2095097.1.2.3.4 bus2=4002957021.1.2.3.4 length=0.017 units=km linecode=CABBTG07_4_3_4
New line.ram2957035 phases=3 bus1=2095111.1.2.4 bus2=4002957035.1.2.4 length=0.017 units=km linecode=CABBTG05_4_2_3
New line.ram2959457 phases=4 bus1=2097008.1.2.3.4 bus2=4002959457.1.2.3.4 length=0.017 units=km linecode=CABBTG07_4_3_4
New line.ram2959471 phases=4 bus1=2097008.1.2.3.4 bus2=4002959471.1.2.3.4 length=0.017 units=km linecode=CABBTG07_4_3_4
New line.ram2959478 phases=4 bus1=2097015.1.2.3.4 bus2=4002959478.1.2.3.4 length=0.017 units=km linecode=CABBTG06_4_3_4
New line.ram2959485 phases=3 bus1=2097015.1.2.4 bus2=4002959485.1.2.4 length=0.017 units=km linecode=CABBTG05_4_2_3
New line.ram2959492 phases=3 bus1=2097015.2.3.4 bus2=4002959492.2.3.4 length=0.017 units=km linecode=CABBTG05_4_2_3
New line.ram2959499 phases=3 bus1=2097015.1.2.4 bus2=4002959499.1.2.4 length=0.017 units=km linecode=CABBTG05_4_2_3
New line.ram2959506 phases=4 bus1=2097022.1.2.3.4 bus2=4002959506.1.2.3.4 length=0.017 units=km linecode=CABBTG07_4_3_4
New line.ram2959513 phases=4 bus1=2097029.1.2.3.4 bus2=4002959513.1.2.3.4 length=0.017 units=km linecode=CABBTG07_4_3_4
New line.ram2961564 phases=3 bus1=129833736.3.1.4 bus2=4002961564.3.1.4 length=0.017 units=km linecode=CABBTG05_4_2_3
New line.ram2937946 phases=4 bus1=3118147.1.2.3.4 bus2=4002937946.1.2.3.4 length=0.017 units=km linecode=CABBTG07_4_3_4
New line.ram2939878 phases=4 bus1=2082707.1.2.3.4 bus2=4002939878.1.2.3.4 length=0.017 units=km linecode=CABBTG07_4_3_4
New line.ram2939885 phases=4 bus1=2082707.1.2.3.4 bus2=4002939885.1.2.3.4 length=0.017 units=km linecode=CABBTG07_4_3_4
New line.ram2939892 phases=3 bus1=2082714.3.1.4 bus2=4002939892.3.1.4 length=0.017 units=km linecode=CABBTG05_4_2_3
New line.ram2939899 phases=3 bus1=2082714.3.1.4 bus2=4002939899.3.1.4 length=0.017 units=km linecode=CABBTG05_4_2_3
New line.ram2939906 phases=4 bus1=2082721.1.2.3.4 bus2=4002939906.1.2.3.4 length=0.017 units=km linecode=CABBTG07_4_3_4
New line.ram2939913 phases=4 bus1=2082721.1.2.3.4 bus2=4002939913.1.2.3.4 length=0.017 units=km linecode=CABBTG07_4_3_4
New line.ram2939920 phases=3 bus1=2082721.2.3.4 bus2=4002939920.2.3.4 length=0.017 units=km linecode=CABBTG05_4_2_3
New line.ram2939927 phases=4 bus1=2082728.1.2.3.4 bus2=4002939927.1.2.3.4 length=0.017 units=km linecode=CABBTG07_4_3_4
New line.ram2939934 phases=3 bus1=2082728.1.2.4 bus2=4002939934.1.2.4 length=0.017 units=km linecode=CABBTG05_4_2_3
New line.ram2939941 phases=3 bus1=2082735.2.3.4 bus2=4002939941.2.3.4 length=0.017 units=km linecode=CABBTG05_4_2_3
New line.ram2939948 phases=3 bus1=2082742.2.3.4 bus2=4002939948.2.3.4 length=0.017 units=km linecode=CABBTG05_4_2_3
New line.ram2945457 phases=3 bus1=2086459.3.1.4 bus2=4002945457.3.1.4 length=0.017 units=km linecode=CABBTG05_4_2_3
New line.ram2945464 phases=4 bus1=2086473.1.2.3.4 bus2=4002945464.1.2.3.4 length=0.017 units=km linecode=CABBTG07_4_3_4
New line.ram2945471 phases=3 bus1=2086494.2.3.4 bus2=4002945471.2.3.4 length=0.017 units=km linecode=CABBTG05_4_2_3
New line.ram2947725 phases=4 bus1=2088447.1.2.3.4 bus2=4002947725.1.2.3.4 length=0.017 units=km linecode=CABBTG09_4_3_4
New line.ram2955383 phases=3 bus1=2094285.3.1.4 bus2=4002955383.3.1.4 length=0.017 units=km linecode=CABBTG05_4_2_3
New line.ram2955390 phases=3 bus1=2094285.3.1.4 bus2=4002955390.3.1.4 length=0.017 units=km linecode=CABBTG05_4_2_3
New line.ram2955397 phases=4 bus1=2094285.1.2.3.4 bus2=4002955397.1.2.3.4 length=0.017 units=km linecode=CABBTG06_4_3_4
New line.ram2955404 phases=3 bus1=2094292.2.3.4 bus2=4002955404.2.3.4 length=0.017 units=km linecode=CABBTG05_4_2_3
New line.ram2955411 phases=4 bus1=2094292.1.2.3.4 bus2=4002955411.1.2.3.4 length=0.017 units=km linecode=CABBTG07_4_3_4
New line.ram2955418 phases=3 bus1=2094306.2.3.4 bus2=4002955418.2.3.4 length=0.017 units=km linecode=CABBTG05_4_2_3
New line.ram2955425 phases=3 bus1=2094306.2.3.4 bus2=4002955425.2.3.4 length=0.017 units=km linecode=CABBTG05_4_2_3
New line.ram2957028 phases=4 bus1=3134135.1.2.3.4 bus2=4002957028.1.2.3.4 length=0.017 units=km linecode=CABBTG08_4_3_4
New line.ram2959520 phases=4 bus1=2097050.1.2.3.4 bus2=4002959520.1.2.3.4 length=0.017 units=km linecode=CABBTG07_4_3_4
New line.ram2959527 phases=4 bus1=2097057.1.2.3.4 bus2=4002959527.1.2.3.4 length=0.017 units=km linecode=CABBTG07_4_3_4
New line.ram2959534 phases=4 bus1=2097064.1.2.3.4 bus2=4002959534.1.2.3.4 length=0.017 units=km linecode=CABBTG07_4_3_4
New line.ram2959541 phases=3 bus1=2097064.2.3.4 bus2=4002959541.2.3.4 length=0.017 units=km linecode=CABBTG05_4_2_3
New line.ram2959548 phases=4 bus1=2097071.1.2.3.4 bus2=4002959548.1.2.3.4 length=0.017 units=km linecode=CABBTG07_4_3_4
New line.ram2961571 phases=4 bus1=2099003.1.2.3.4 bus2=4002961571.1.2.3.4 length=0.017 units=km linecode=CABBTG08_4_3_4
New line.ram2961578 phases=4 bus1=2099003.1.2.3.4 bus2=4002961578.1.2.3.4 length=0.017 units=km linecode=CABBTG07_4_3_4
New line.ram2964364 phases=3 bus1=2305741.3.1.4 bus2=4002964364.3.1.4 length=0.017 units=km linecode=CABBTG05_4_2_3
New line.ram2964371 phases=4 bus1=2305741.1.2.3.4 bus2=4002964371.1.2.3.4 length=0.017 units=km linecode=CABBTG07_4_3_4
New line.ram2964378 phases=4 bus1=2305741.1.2.3.4 bus2=4002964378.1.2.3.4 length=0.017 units=km linecode=CABBTG07_4_3_4
New line.ram2964385 phases=3 bus1=2101250.1.2.4 bus2=4002964385.1.2.4 length=0.017 units=km linecode=CABBTG05_4_2_3
New line.ram2964392 phases=4 bus1=2101257.1.2.3.4 bus2=4002964392.1.2.3.4 length=0.017 units=km linecode=CABBTG06_4_3_4
New line.ram2964399 phases=3 bus1=2101257.3.1.4 bus2=4002964399.3.1.4 length=0.017 units=km linecode=CABBTG05_4_2_3
New line.ram2964406 phases=4 bus1=2101257.1.2.3.4 bus2=4002964406.1.2.3.4 length=0.017 units=km linecode=CABBTG07_4_3_4
New line.ram2969943 phases=4 bus1=2105443.1.2.3.4 bus2=4002969943.1.2.3.4 length=0.017 units=km linecode=CABBTG07_4_3_4
New line.ram3249019 phases=3 bus1=2258246.1.2.4 bus2=4003249019.1.2.4 length=0.017 units=km linecode=CABBTG05_4_2_3
New line.ram3249026 phases=3 bus1=2258253.1.2.4 bus2=4003249026.1.2.4 length=0.017 units=km linecode=CABBTG05_4_2_3
New line.ram3249033 phases=3 bus1=2258260.2.3.4 bus2=4003249033.2.3.4 length=0.017 units=km linecode=CABBTG05_4_2_3
New line.ram3249040 phases=3 bus1=2258274.2.3.4 bus2=4003249040.2.3.4 length=0.017 units=km linecode=CABBTG05_4_2_3
New line.ram3249047 phases=3 bus1=2258274.3.1.4 bus2=4003249047.3.1.4 length=0.017 units=km linecode=CABBTG05_4_2_3
New line.ram3249054 phases=3 bus1=2258281.1.2.4 bus2=4003249054.1.2.4 length=0.017 units=km linecode=CABBTG05_4_2_3
New line.ram3249061 phases=3 bus1=2258281.1.2.4 bus2=4003249061.1.2.4 length=0.017 units=km linecode=CABBTG05_4_2_3
New line.ram3249068 phases=4 bus1=2258295.1.2.3.4 bus2=4003249068.1.2.3.4 length=0.02 units=km linecode=CABBTG06_4_3_4
New line.ram3249075 phases=4 bus1=2258288.1.2.3.4 bus2=4003249075.1.2.3.4 length=0.017 units=km linecode=CABBTG07_4_3_4
New line.ram3249082 phases=4 bus1=2258309.1.2.3.4 bus2=4003249082.1.2.3.4 length=0.017 units=km linecode=CABBTG07_4_3_4
New line.ram3311305 phases=4 bus1=2309962.1.2.3.4 bus2=4003311305.1.2.3.4 length=0.017 units=km linecode=CABBTG07_4_3_4
New line.ram3311312 phases=4 bus1=2309962.1.2.3.4 bus2=4003311312.1.2.3.4 length=0.017 units=km linecode=CABBTG07_4_3_4
New line.ram3311319 phases=3 bus1=2309962.3.1.4 bus2=4003311319.3.1.4 length=0.017 units=km linecode=CABBTG05_4_2_3
New line.ram3311326 phases=4 bus1=2309962.1.2.3.4 bus2=4003311326.1.2.3.4 length=0.017 units=km linecode=CABBTG06_4_3_4
New line.ram3311333 phases=4 bus1=2309969.1.2.3.4 bus2=4003311333.1.2.3.4 length=0.017 units=km linecode=CABBTG07_4_3_4
New line.ram3311340 phases=3 bus1=2309976.2.3.4 bus2=4003311340.2.3.4 length=0.017 units=km linecode=CABBTG05_4_2_3
New line.ram3325487 phases=4 bus1=2319020.1.2.3.4 bus2=4003325487.1.2.3.4 length=0.017 units=km linecode=CABBTG07_4_3_4
New line.ram3325494 phases=3 bus1=2319020.1.2.4 bus2=4003325494.1.2.4 length=0.017 units=km linecode=CABBTG05_4_2_3
New line.ram3325501 phases=3 bus1=2319020.3.1.4 bus2=4003325501.3.1.4 length=0.017 units=km linecode=CABBTG05_4_2_3
New line.ram3325508 phases=3 bus1=2319020.2.3.4 bus2=4003325508.2.3.4 length=0.017 units=km linecode=CABBTG05_4_2_3
New line.ram3325515 phases=4 bus1=2319020.1.2.3.4 bus2=4003325515.1.2.3.4 length=0.017 units=km linecode=CABBTG07_4_3_4
New line.ram3325522 phases=3 bus1=2319027.3.1.4 bus2=4003325522.3.1.4 length=0.017 units=km linecode=CABBTG05_4_2_3
New line.ram3325529 phases=3 bus1=2319027.3.1.4 bus2=4003325529.3.1.4 length=0.017 units=km linecode=CABBTG05_4_2_3
New line.ram3325536 phases=3 bus1=2319027.2.3.4 bus2=4003325536.2.3.4 length=0.017 units=km linecode=CABBTG05_4_2_3
New line.ram3325543 phases=3 bus1=2319027.2.3.4 bus2=4003325543.2.3.4 length=0.017 units=km linecode=CABBTG05_4_2_3
New line.ram3304564 phases=4 bus1=160863235.1.2.3.4 bus2=4003304564.1.2.3.4 length=0.02 units=km linecode=CABBTG10_4_3_4
New line.ram4090146 phases=4 bus1=2097001.1.2.3.4 bus2=4004090146.1.2.3.4 length=0.017 units=km linecode=CABBTG07_4_3_4
New line.ram4097615 phases=4 bus1=2258302.1.2.3.4 bus2=4004097615.1.2.3.4 length=0.017 units=km linecode=CABBTG06_4_3_4
New line.ram4183001 phases=4 bus1=3033321.1.2.3.4 bus2=4004183001.1.2.3.4 length=0.017 units=km linecode=CABBTG09_4_3_4
New line.ram4229292 phases=4 bus1=2258260.1.2.3.4 bus2=4004229292.1.2.3.4 length=0.017 units=km linecode=CABBT815_4_3_4
New line.ram4272076 phases=4 bus1=2258260.1.2.3.4 bus2=4004272076.1.2.3.4 length=0.017 units=km linecode=CABBTG06_4_3_4
New line.ram4281036 phases=3 bus1=2099003.1.2.4 bus2=4004281036.1.2.4 length=0.017 units=km linecode=CABBTG05_4_2_3
New line.ram4401611 phases=3 bus1=2101250.2.3.4 bus2=4004401611.2.3.4 length=0.017 units=km linecode=CABBTG05_4_2_3
New line.ram4601629 phases=3 bus1=2078654.2.3.4 bus2=4004601629.2.3.4 length=0.017 units=km linecode=CABBTG04_4_2_3
New line.ram4487851 phases=3 bus1=2258253.1.2.4 bus2=4004487851.1.2.4 length=0.017 units=km linecode=CABBTG05_4_2_3
New line.ram4675122 phases=3 bus1=2095111.1.2.4 bus2=4004675122.1.2.4 length=0.017 units=km linecode=CABBTG05_4_2_3
New line.ram4675136 phases=3 bus1=2078654.2.3.4 bus2=4004675136.2.3.4 length=0.017 units=km linecode=CABBTG05_4_2_3
New line.ram4682717 phases=3 bus1=2072886.3.1.4 bus2=4004682717.3.1.4 length=0.017 units=km linecode=CABBTG04_4_2_3
New line.ram4738549 phases=3 bus1=2094236.1.2.4 bus2=4004738549.1.2.4 length=0.017 units=km linecode=CABBTG05_4_2_3
New line.ram4617897 phases=4 bus1=2086452.1.2.3.4 bus2=4004617897.1.2.3.4 length=0.017 units=km linecode=CABBTG06_4_3_4
New line.ram4625086 phases=4 bus1=160863235.1.2.3.4 bus2=4004625086.1.2.3.4 length=0.017 units=km linecode=CABBTG06_4_3_4
New line.ram4641809 phases=4 bus1=2094278.1.2.3.4 bus2=4004641809.1.2.3.4 length=0.017 units=km linecode=CABBTG06_4_3_4
New line.ram4793996 phases=4 bus1=2072900.1.2.3.4 bus2=4004793996.1.2.3.4 length=0.017 units=km linecode=CABBTG07_4_3_4
New line.ram4861581 phases=4 bus1=2086452.1.2.3.4 bus2=4004861581.1.2.3.4 length=0.017 units=km linecode=CABBTG06_4_3_4
New line.ram4902531 phases=3 bus1=2072879.2.3.4 bus2=4004902531.2.3.4 length=0.017 units=km linecode=CABBTG04_4_2_3
New line.ram4954352 phases=3 bus1=2072893.2.3.4 bus2=4004954352.2.3.4 length=0.017 units=km linecode=CABBTG05_4_2_3
New line.ram5016925 phases=4 bus1=2094222.1.2.3.4 bus2=4005016925.1.2.3.4 length=0.017 units=km linecode=CABBTG06_4_3_4
New line.ram5016841 phases=3 bus1=2258274.2.3.4 bus2=4005016841.2.3.4 length=0.017 units=km linecode=CABBTG05_4_2_3
New line.ram5082564 phases=3 bus1=2099003.1.2.4 bus2=4005082564.1.2.4 length=0.017 units=km linecode=CABBTG05_4_2_3
New line.ram5124165 phases=4 bus1=5559320.1.2.3.4 bus2=4005124165.1.2.3.4 length=0.017 units=km linecode=CABBTG09_4_3_4
New line.ram5265292 phases=3 bus1=2072900.3.1.4 bus2=4005265292.3.1.4 length=0.017 units=km linecode=CABBTG04_4_2_3