New load.bt21088-1 phases=1 bus=1002936966.2.3.4 model=2 kv=0.22 kw=0.34363070776255705 pf=0.92 conn=delta status=variable vmaxpu=1.5 vminpu=0.92 daily=RES1_16
New load.bt21088-2 phases=1 bus=1002936966.2.3.4 model=3 kv=0.22 kw=0.34363070776255705 pf=0.92 conn=delta status=variable vmaxpu=1.5 vminpu=0.92 daily=RES1_16
New load.bt23117-1 phases=3 bus=1002937099.1.2.3.4 model=2 kv=0.22 kw=0.1327505707762557 pf=0.92 conn=delta status=variable vmaxpu=1.5 vminpu=0.92 daily=RES1_16
New load.bt23117-2 phases=3 bus=1002937099.1.2.3.4 model=3 kv=0.22 kw=0.1327505707762557 pf=0.92 conn=delta status=variable vmaxpu=1.5 vminpu=0.92 daily=RES1_16
New load.bt36301-1 phases=1 bus=1002937043.2.3.4 model=2 kv=0.22 kw=0.11912385844748857 pf=0.92 conn=delta status=variable vmaxpu=1.5 vminpu=0.92 daily=RES1_16
New load.bt36301-2 phases=1 bus=1002937043.2.3.4 model=3 kv=0.22 kw=0.11912385844748857 pf=0.92 conn=delta status=variable vmaxpu=1.5 vminpu=0.92 daily=RES1_16
New load.bt37947-1 phases=1 bus=1002937057.1.2.4 model=2 kv=0.22 kw=0.2677260273972603 pf=0.92 conn=delta status=variable vmaxpu=1.5 vminpu=0.92 daily=RES1_16
New load.bt37947-2 phases=1 bus=1002937057.1.2.4 model=3 kv=0.22 kw=0.2677260273972603 pf=0.92 conn=delta status=variable vmaxpu=1.5 vminpu=0.92 daily=RES1_16
New load.bt41047-1 phases=3 bus=1002937148.1.2.3.4 model=2 kv=0.22 kw=0.21292922374429227 pf=0.92 conn=delta status=variable vmaxpu=1.5 vminpu=0.92 daily=RES1_16
New load.bt41047-2 phases=3 bus=1002937148.1.2.3.4 model=3 kv=0.22 kw=0.21292922374429227 pf=0.92 conn=delta status=variable vmaxpu=1.5 vminpu=0.92 daily=RES1_16
New load.bt49236-1 phases=1 bus=1002936987.1.2.4 model=2 kv=0.22 kw=0.22624543378995432 pf=0.92 conn=delta status=variable vmaxpu=1.5 vminpu=0.92 daily=RES1_16
New load.bt49236-2 phases=1 bus=1002936987.1.2.4 model=3 kv=0.22 kw=0.22624543378995432 pf=0.92 conn=delta status=variable vmaxpu=1.5 vminpu=0.92 daily=RES1_16
New load.bt50739-1 phases=1 bus=1002936917.3.1.4 model=2 kv=0.22 kw=0.18186187214611874 pf=0.92 conn=delta status=variable vmaxpu=1.5 vminpu=0.92 daily=RES1_16
New load.bt50739-2 phases=1 bus=1002936917.3.1.4 model=3 kv=0.22 kw=0.18186187214611874 pf=0.92 conn=delta status=variable vmaxpu=1.5 vminpu=0.92 daily=RES1_16
New load.bt52172-1 phases=1 bus=1002937120.3.1.4 model=2 kv=0.22 kw=0.2000753424657534 pf=0.92 conn=delta status=variable vmaxpu=1.5 vminpu=0.92 daily=RES1_16
New load.bt52172-2 phases=1 bus=1002937120.3.1.4 model=3 kv=0.22 kw=0.2000753424657534 pf=0.92 conn=delta status=variable vmaxpu=1.5 vminpu=0.92 daily=RES1_16
New load.bt54560-1 phases=1 bus=1002936973.1.2.4 model=2 kv=0.22 kw=0.19842922374429223 pf=0.92 conn=delta status=variable vmaxpu=1.5 vminpu=0.92 daily=RES1_16
New load.bt54560-2 phases=1 bus=1002936973.1.2.4 model=3 kv=0.22 kw=0.19842922374429223 pf=0.92 conn=delta status=variable vmaxpu=1.5 vminpu=0.92 daily=RES1_16
New load.bt55781-1 phases=1 bus=1002937127.1.2.4 model=2 kv=0.22 kw=0.23360844748858448 pf=0.92 conn=delta status=variable vmaxpu=1.5 vminpu=0.92 daily=RES1_16
New load.bt55781-2 phases=1 bus=1002937127.1.2.4 model=3 kv=0.22 kw=0.23360844748858448 pf=0.92 conn=delta status=variable vmaxpu=1.5 vminpu=0.92 daily=RES1_16
New load.bt76158-1 phases=3 bus=1002937148.1.2.3.4 model=2 kv=0.22 kw=0.12299657534246573 pf=0.92 conn=delta status=variable vmaxpu=1.5 vminpu=0.92 daily=RES1_16
New load.bt76158-2 phases=3 bus=1002937148.1.2.3.4 model=3 kv=0.22 kw=0.12299657534246573 pf=0.92 conn=delta status=variable vmaxpu=1.5 vminpu=0.92 daily=RES1_16
New load.bt83120-1 phases=1 bus=1002936924.1.2.4 model=2 kv=0.22 kw=0.15443150684931506 pf=0.92 conn=delta status=variable vmaxpu=1.5 vminpu=0.92 daily=RES1_16
New load.bt83120-2 phases=1 bus=1002936924.1.2.4 model=3 kv=0.22 kw=0.15443150684931506 pf=0.92 conn=delta status=variable vmaxpu=1.5 vminpu=0.92 daily=RES1_16
New load.bt91512-1 phases=3 bus=1002937148.1.2.3.4 model=2 kv=0.22 kw=0.18885102739726028 pf=0.92 conn=delta status=variable vmaxpu=1.5 vminpu=0.92 daily=RES1_16
New load.bt91512-2 phases=3 bus=1002937148.1.2.3.4 model=3 kv=0.22 kw=0.18885102739726028 pf=0.92 conn=delta status=variable vmaxpu=1.5 vminpu=0.92 daily=RES1_16
New load.bt99985-1 phases=1 bus=1002937085.1.2.4 model=2 kv=0.22 kw=0.1195017123287671 pf=0.92 conn=delta status=variable vmaxpu=1.5 vminpu=0.92 daily=RES1_16
New load.bt99985-2 phases=1 bus=1002937085.1.2.4 model=3 kv=0.22 kw=0.1195017123287671 pf=0.92 conn=delta status=variable vmaxpu=1.5 vminpu=0.92 daily=RES1_16
New load.bt102815-1 phases=1 bus=1002937022.2.3.4 model=2 kv=0.22 kw=0.13433219178082192 pf=0.92 conn=delta status=variable vmaxpu=1.5 vminpu=0.92 daily=RES1_16
New load.bt102815-2 phases=1 bus=1002937022.2.3.4 model=3 kv=0.22 kw=0.13433219178082192 pf=0.92 conn=delta status=variable vmaxpu=1.5 vminpu=0.92 daily=RES1_16
New load.bt119690-1 phases=1 bus=1002937015.1.2.4 model=2 kv=0.22 kw=0.08970148401826485 pf=0.92 conn=delta status=variable vmaxpu=1.5 vminpu=0.92 daily=RES1_16
New load.bt119690-2 phases=1 bus=1002937015.1.2.4 model=3 kv=0.22 kw=0.08970148401826485 pf=0.92 conn=delta status=variable vmaxpu=1.5 vminpu=0.92 daily=RES1_16
New load.bt129845-1 phases=1 bus=1002937106.1.2.4 model=2 kv=0.22 kw=0.1249920091324201 pf=0.92 conn=delta status=variable vmaxpu=1.5 vminpu=0.92 daily=RES1_16
New load.bt129845-2 phases=1 bus=1002937106.1.2.4 model=3 kv=0.22 kw=0.1249920091324201 pf=0.92 conn=delta status=variable vmaxpu=1.5 vminpu=0.92 daily=RES1_16
New load.bt137752-1 phases=1 bus=1002936980.1.2.4 model=2 kv=0.22 kw=0.14172888127853883 pf=0.92 conn=delta status=variable vmaxpu=1.5 vminpu=0.92 daily=RES1_16
New load.bt137752-2 phases=1 bus=1002936980.1.2.4 model=3 kv=0.22 kw=0.14172888127853883 pf=0.92 conn=delta status=variable vmaxpu=1.5 vminpu=0.92 daily=RES1_16
New load.bt151621-1 phases=1 bus=1002937029.2.3.4 model=2 kv=0.22 kw=0.12388984018264838 pf=0.92 conn=delta status=variable vmaxpu=1.5 vminpu=0.92 daily=RES1_16
New load.bt151621-2 phases=1 bus=1002937029.2.3.4 model=3 kv=0.22 kw=0.12388984018264838 pf=0.92 conn=delta status=variable vmaxpu=1.5 vminpu=0.92 daily=RES1_16
New load.bt153310-1 phases=1 bus=1002936994.3.1.4 model=2 kv=0.22 kw=0.13131050228310504 pf=0.92 conn=delta status=variable vmaxpu=1.5 vminpu=0.92 daily=RES1_16
New load.bt153310-2 phases=1 bus=1002936994.3.1.4 model=3 kv=0.22 kw=0.13131050228310504 pf=0.92 conn=delta status=variable vmaxpu=1.5 vminpu=0.92 daily=RES1_16
New load.bt153745-1 phases=3 bus=1002937148.1.2.3.4 model=2 kv=0.22 kw=0.06664326484018265 pf=0.92 conn=delta status=variable vmaxpu=1.5 vminpu=0.92 daily=RES1_16
New load.bt153745-2 phases=3 bus=1002937148.1.2.3.4 model=3 kv=0.22 kw=0.06664326484018265 pf=0.92 conn=delta status=variable vmaxpu=1.5 vminpu=0.92 daily=RES1_16
New load.bt173756-1 phases=3 bus=1002937141.1.2.3.4 model=2 kv=0.22 kw=0.12257648401826483 pf=0.92 conn=delta status=variable vmaxpu=1.5 vminpu=0.92 daily=RES1_16
New load.bt173756-2 phases=3 bus=1002937141.1.2.3.4 model=3 kv=0.22 kw=0.12257648401826483 pf=0.92 conn=delta status=variable vmaxpu=1.5 vminpu=0.92 daily=RES1_16
New load.bt191472-1 phases=1 bus=1002936938.1.2.4 model=2 kv=0.22 kw=0.08121175799086758 pf=0.92 conn=delta status=variable vmaxpu=1.5 vminpu=0.92 daily=RES1_16
New load.bt191472-2 phases=1 bus=1002936938.1.2.4 model=3 kv=0.22 kw=0.08121175799086758 pf=0.92 conn=delta status=variable vmaxpu=1.5 vminpu=0.92 daily=RES1_16
New load.bt199286-1 phases=3 bus=1002937141.1.2.3.4 model=2 kv=0.22 kw=0.03691438356164384 pf=0.92 conn=delta status=variable vmaxpu=1.5 vminpu=0.92 daily=RES1_16
New load.bt199286-2 phases=3 bus=1002937141.1.2.3.4 model=3 kv=0.22 kw=0.03691438356164384 pf=0.92 conn=delta status=variable vmaxpu=1.5 vminpu=0.92 daily=RES1_16
New load.bt203859-1 phases=1 bus=1002936931.3.1.4 model=2 kv=0.22 kw=0.0914400684931507 pf=0.92 conn=delta status=variable vmaxpu=1.5 vminpu=0.92 daily=RES1_16
New load.bt203859-2 phases=1 bus=1002936931.3.1.4 model=3 kv=0.22 kw=0.0914400684931507 pf=0.92 conn=delta status=variable vmaxpu=1.5 vminpu=0.92 daily=RES1_16
New load.bt208053-1 phases=1 bus=1002937064.2.3.4 model=2 kv=0.22 kw=0.09287728310502283 pf=0.92 conn=delta status=variable vmaxpu=1.5 vminpu=0.92 daily=RES1_16
New load.bt208053-2 phases=1 bus=1002937064.2.3.4 model=3 kv=0.22 kw=0.09287728310502283 pf=0.92 conn=delta status=variable vmaxpu=1.5 vminpu=0.92 daily=RES1_16
New load.bt209051-1 phases=1 bus=1002937008.2.3.4 model=2 kv=0.22 kw=0.11121061643835616 pf=0.92 conn=delta status=variable vmaxpu=1.5 vminpu=0.92 daily=RES1_16
New load.bt209051-2 phases=1 bus=1002937008.2.3.4 model=3 kv=0.22 kw=0.11121061643835616 pf=0.92 conn=delta status=variable vmaxpu=1.5 vminpu=0.92 daily=RES1_16
New load.bt224467-1 phases=1 bus=1002937071.1.2.4 model=2 kv=0.22 kw=0.09038869863013699 pf=0.92 conn=delta status=variable vmaxpu=1.5 vminpu=0.92 daily=RES1_16
New load.bt224467-2 phases=1 bus=1002937071.1.2.4 model=3 kv=0.22 kw=0.09038869863013699 pf=0.92 conn=delta status=variable vmaxpu=1.5 vminpu=0.92 daily=RES1_16
New load.bt228637-1 phases=1 bus=1002937113.3.1.4 model=2 kv=0.22 kw=0.0893687214611872 pf=0.92 conn=delta status=variable vmaxpu=1.5 vminpu=0.92 daily=RES1_16
New load.bt228637-2 phases=1 bus=1002937113.3.1.4 model=3 kv=0.22 kw=0.0893687214611872 pf=0.92 conn=delta status=variable vmaxpu=1.5 vminpu=0.92 daily=RES1_16
New load.bt241535-1 phases=1 bus=1002936952.2.3.4 model=2 kv=0.22 kw=0.07463584474885845 pf=0.92 conn=delta status=variable vmaxpu=1.5 vminpu=0.92 daily=RES1_16
New load.bt241535-2 phases=1 bus=1002936952.2.3.4 model=3 kv=0.22 kw=0.07463584474885845 pf=0.92 conn=delta status=variable vmaxpu=1.5 vminpu=0.92 daily=RES1_16
New load.bt251100-1 phases=3 bus=1002937141.1.2.3.4 model=2 kv=0.22 kw=0.10122716894977168 pf=0.92 conn=delta status=variable vmaxpu=1.5 vminpu=0.92 daily=RES1_16
New load.bt251100-2 phases=3 bus=1002937141.1.2.3.4 model=3 kv=0.22 kw=0.10122716894977168 pf=0.92 conn=delta status=variable vmaxpu=1.5 vminpu=0.92 daily=RES1_16
New load.bt257246-1 phases=3 bus=1002937148.1.2.3.4 model=2 kv=0.22 kw=0.06996347031963471 pf=0.92 conn=delta status=variable vmaxpu=1.5 vminpu=0.92 daily=RES1_16
New load.bt257246-2 phases=3 bus=1002937148.1.2.3.4 model=3 kv=0.22 kw=0.06996347031963471 pf=0.92 conn=delta status=variable vmaxpu=1.5 vminpu=0.92 daily=RES1_16
New load.bt263814-1 phases=3 bus=1002937141.1.2.3.4 model=2 kv=0.22 kw=0.10276255707762556 pf=0.92 conn=delta status=variable vmaxpu=1.5 vminpu=0.92 daily=RES1_16
New load.bt263814-2 phases=3 bus=1002937141.1.2.3.4 model=3 kv=0.22 kw=0.10276255707762556 pf=0.92 conn=delta status=variable vmaxpu=1.5 vminpu=0.92 daily=RES1_16
New load.bt271675-1 phases=3 bus=1002937148.1.2.3.4 model=2 kv=0.22 kw=0.05260102739726027 pf=0.92 conn=delta status=variable vmaxpu=1.5 vminpu=0.92 daily=RES1_16
New load.bt271675-2 phases=3 bus=1002937148.1.2.3.4 model=3 kv=0.22 kw=0.05260102739726027 pf=0.92 conn=delta status=variable vmaxpu=1.5 vminpu=0.92 daily=RES1_16
New load.bt288558-1 phases=3 bus=1002937141.1.2.3.4 model=2 kv=0.22 kw=0.05956050228310502 pf=0.92 conn=delta status=variable vmaxpu=1.5 vminpu=0.92 daily=RES1_16
New load.bt288558-2 phases=3 bus=1002937141.1.2.3.4 model=3 kv=0.22 kw=0.05956050228310502 pf=0.92 conn=delta status=variable vmaxpu=1.5 vminpu=0.92 daily=RES1_16
New load.bt302601-1 phases=3 bus=1002937141.1.2.3.4 model=2 kv=0.22 kw=0.06653424657534247 pf=0.92 conn=delta status=variable vmaxpu=1.5 vminpu=0.92 daily=RES1_16
New load.bt302601-2 phases=3 bus=1002937141.1.2.3.4 model=3 kv=0.22 kw=0.06653424657534247 pf=0.92 conn=delta status=variable vmaxpu=1.5 vminpu=0.92 daily=RES1_16
New load.bt314162-1 phases=1 bus=1002937036.2.3.4 model=2 kv=0.22 kw=0.03342808219178082 pf=0.92 conn=delta status=variable vmaxpu=1.5 vminpu=0.92 daily=RES1_16
New load.bt314162-2 phases=1 bus=1002937036.2.3.4 model=3 kv=0.22 kw=0.03342808219178082 pf=0.92 conn=delta status=variable vmaxpu=1.5 vminpu=0.92 daily=RES1_16
New load.bt329240-1 phases=3 bus=1002937141.1.2.3.4 model=2 kv=0.22 kw=0.023335616438356167 pf=0.92 conn=delta status=variable vmaxpu=1.5 vminpu=0.92 daily=RES1_16
New load.bt329240-2 phases=3 bus=1002937141.1.2.3.4 model=3 kv=0.22 kw=0.023335616438356167 pf=0.92 conn=delta status=variable vmaxpu=1.5 vminpu=0.92 daily=RES1_16
New load.bt340165-1 phases=3 bus=1002937148.1.2.3.4 model=2 kv=0.22 kw=0.06283847031963469 pf=0.92 conn=delta status=variable vmaxpu=1.5 vminpu=0.92 daily=RES1_16
New load.bt340165-2 phases=3 bus=1002937148.1.2.3.4 model=3 kv=0.22 kw=0.06283847031963469 pf=0.92 conn=delta status=variable vmaxpu=1.5 vminpu=0.92 daily=RES1_16
New load.bt341303-1 phases=1 bus=1002936945.1.2.4 model=2 kv=0.22 kw=0.06150228310502283 pf=0.92 conn=delta status=variable vmaxpu=1.5 vminpu=0.92 daily=RES1_16
New load.bt341303-2 phases=1 bus=1002936945.1.2.4 model=3 kv=0.22 kw=0.06150228310502283 pf=0.92 conn=delta status=variable vmaxpu=1.5 vminpu=0.92 daily=RES1_16
New load.bt347468-1 phases=3 bus=1002937148.1.2.3.4 model=2 kv=0.22 kw=0.046629566210045666 pf=0.92 conn=delta status=variable vmaxpu=1.5 vminpu=0.92 daily=RES1_16
New load.bt347468-2 phases=3 bus=1002937148.1.2.3.4 model=3 kv=0.22 kw=0.046629566210045666 pf=0.92 conn=delta status=variable vmaxpu=1.5 vminpu=0.92 daily=RES1_16
New load.bt347790-1 phases=3 bus=1002937141.1.2.3.4 model=2 kv=0.22 kw=0.035267123287671225 pf=0.92 conn=delta status=variable vmaxpu=1.5 vminpu=0.92 daily=RES1_16
New load.bt347790-2 phases=3 bus=1002937141.1.2.3.4 model=3 kv=0.22 kw=0.035267123287671225 pf=0.92 conn=delta status=variable vmaxpu=1.5 vminpu=0.92 daily=RES1_16
New load.bt348255-1 phases=3 bus=1002937141.1.2.3.4 model=2 kv=0.22 kw=0.061783105022831054 pf=0.92 conn=delta status=variable vmaxpu=1.5 vminpu=0.92 daily=RES1_16
New load.bt348255-2 phases=3 bus=1002937141.1.2.3.4 model=3 kv=0.22 kw=0.061783105022831054 pf=0.92 conn=delta status=variable vmaxpu=1.5 vminpu=0.92 daily=RES1_16
New load.bt350800-1 phases=1 bus=1002937001.3.1.4 model=2 kv=0.22 kw=0.05870776255707764 pf=0.92 conn=delta status=variable vmaxpu=1.5 vminpu=0.92 daily=RES1_16
New load.bt350800-2 phases=1 bus=1002937001.3.1.4 model=3 kv=0.22 kw=0.05870776255707764 pf=0.92 conn=delta status=variable vmaxpu=1.5 vminpu=0.92 daily=RES1_16
New load.bt367879-1 phases=3 bus=1002937148.1.2.3.4 model=2 kv=0.22 kw=0.03348630136986301 pf=0.92 conn=delta status=variable vmaxpu=1.5 vminpu=0.92 daily=RES1_16
New load.bt367879-2 phases=3 bus=1002937148.1.2.3.4 model=3 kv=0.22 kw=0.03348630136986301 pf=0.92 conn=delta status=variable vmaxpu=1.5 vminpu=0.92 daily=RES1_16
New load.bt401325-1 phases=1 bus=1002937078.2.3.4 model=2 kv=0.22 kw=0.02892579908675799 pf=0.92 conn=delta status=variable vmaxpu=1.5 vminpu=0.92 daily=RES1_16
New load.bt401325-2 phases=1 bus=1002937078.2.3.4 model=3 kv=0.22 kw=0.02892579908675799 pf=0.92 conn=delta status=variable vmaxpu=1.5 vminpu=0.92 daily=RES1_16
New load.bt401605-1 phases=3 bus=1002937148.1.2.3.4 model=2 kv=0.22 kw=0.030666095890410958 pf=0.92 conn=delta status=variable vmaxpu=1.5 vminpu=0.92 daily=RES1_16
New load.bt401605-2 phases=3 bus=1002937148.1.2.3.4 model=3 kv=0.22 kw=0.030666095890410958 pf=0.92 conn=delta status=variable vmaxpu=1.5 vminpu=0.92 daily=RES1_16
New load.bt421561-1 phases=3 bus=1002937141.1.2.3.4 model=2 kv=0.22 kw=0.03279052511415524 pf=0.92 conn=delta status=variable vmaxpu=1.5 vminpu=0.92 daily=RES1_16
New load.bt421561-2 phases=3 bus=1002937141.1.2.3.4 model=3 kv=0.22 kw=0.03279052511415524 pf=0.92 conn=delta status=variable vmaxpu=1.5 vminpu=0.92 daily=RES1_16
New load.bt433528-1 phases=1 bus=1002936959.1.2.4 model=2 kv=0.22 kw=0.0404851598173516 pf=0.92 conn=delta status=variable vmaxpu=1.5 vminpu=0.92 daily=RES1_16
New load.bt433528-2 phases=1 bus=1002936959.1.2.4 model=3 kv=0.22 kw=0.0404851598173516 pf=0.92 conn=delta status=variable vmaxpu=1.5 vminpu=0.92 daily=RES1_16
New load.bt444429-1 phases=1 bus=1002937134.1.2.4 model=2 kv=0.22 kw=0.007642694063926941 pf=0.92 conn=delta status=variable vmaxpu=1.5 vminpu=0.92 daily=RES1_16
New load.bt444429-2 phases=1 bus=1002937134.1.2.4 model=3 kv=0.22 kw=0.007642694063926941 pf=0.92 conn=delta status=variable vmaxpu=1.5 vminpu=0.92 daily=RES1_16
New load.bt1202514-1 phases=3 bus=1002924142.1.2.3.4 model=2 kv=0.22 kw=0.10372659817351598 pf=0.92 conn=delta status=variable vmaxpu=1.5 vminpu=0.92 daily=RES1_7
New load.bt1202514-2 phases=3 bus=1002924142.1.2.3.4 model=3 kv=0.22 kw=0.10372659817351598 pf=0.92 conn=delta status=variable vmaxpu=1.5 vminpu=0.92 daily=RES1_7
New load.bt1203559-1 phases=3 bus=1002955264.1.2.3.4 model=2 kv=0.22 kw=0.09061244292237441 pf=0.92 conn=delta status=variable vmaxpu=1.5 vminpu=0.92 daily=RES1_7
New load.bt1203559-2 phases=3 bus=1002955264.1.2.3.4 model=3 kv=0.22 kw=0.09061244292237441 pf=0.92 conn=delta status=variable vmaxpu=1.5 vminpu=0.92 daily=RES1_7
New load.bt1205900-1 phases=1 bus=1002924114.2.3.4 model=2 kv=0.22 kw=0.1101090182648402 pf=0.92 conn=delta status=variable vmaxpu=1.5 vminpu=0.92 daily=RES1_7
New load.bt1205900-2 phases=1 bus=1002924114.2.3.4 model=3 kv=0.22 kw=0.1101090182648402 pf=0.92 conn=delta status=variable vmaxpu=1.5 vminpu=0.92 daily=RES1_7
New load.bt1220954-1 phases=3 bus=1002924233.1.2.3.4 model=2 kv=0.22 kw=0.08464497716894977 pf=0.92 conn=delta status=variable vmaxpu=1.5 vminpu=0.92 daily=RES1_7
New load.bt1220954-2 phases=3 bus=1002924233.1.2.3.4 model=3 kv=0.22 kw=0.08464497716894977 pf=0.92 conn=delta status=variable vmaxpu=1.5 vminpu=0.92 daily=RES1_7
New load.bt1221018-1 phases=1 bus=1002951652.3.1.4 model=2 kv=0.22 kw=0.08868207762557077 pf=0.92 conn=delta status=variable vmaxpu=1.5 vminpu=0.92 daily=RES1_7
New load.bt1221018-2 phases=1 bus=1002951652.3.1.4 model=3 kv=0.22 kw=0.08868207762557077 pf=0.92 conn=delta status=variable vmaxpu=1.5 vminpu=0.92 daily=RES1_7
New load.bt1222136-1 phases=1 bus=1003325508.2.3.4 model=2 kv=0.22 kw=0.06615468036529681 pf=0.92 conn=delta status=variable vmaxpu=1.5 vminpu=0.92 daily=RES1_7
New load.bt1222136-2 phases=1 bus=1003325508.2.3.4 model=3 kv=0.22 kw=0.06615468036529681 pf=0.92 conn=delta status=variable vmaxpu=1.5 vminpu=0.92 daily=RES1_7
New load.bt1228469-1 phases=1 bus=1002951652.3.1.4 model=2 kv=0.22 kw=0.09650570776255707 pf=0.92 conn=delta status=variable vmaxpu=1.5 vminpu=0.92 daily=RES1_7
New load.bt1228469-2 phases=1 bus=1002951652.3.1.4 model=3 kv=0.22 kw=0.09650570776255707 pf=0.92 conn=delta status=variable vmaxpu=1.5 vminpu=0.92 daily=RES1_7
New load.bt1242358-1 phases=3 bus=1002959457.1.2.3.4 model=2 kv=0.22 kw=0.09467180365296804 pf=0.92 conn=delta status=variable vmaxpu=1.5 vminpu=0.92 daily=COM1_11
New load.bt1242358-2 phases=3 bus=1002959457.1.2.3.4 model=3 kv=0.22 kw=0.09467180365296804 pf=0.92 conn=delta status=variable vmaxpu=1.5 vminpu=0.92 daily=COM1_11
New load.bt1243349-1 phases=1 bus=1002959492.2.3.4 model=2 kv=0.22 kw=0.13525856164383562 pf=0.92 conn=delta status=variable vmaxpu=1.5 vminpu=0.92 daily=RES1_7
New load.bt1243349-2 phases=1 bus=1002959492.2.3.4 model=3 kv=0.22 kw=0.13525856164383562 pf=0.92 conn=delta status=variable vmaxpu=1.5 vminpu=0.92 daily=RES1_7
New load.bt1244539-1 phases=1 bus=1002955271.2.3.4 model=2 kv=0.22 kw=0.07630365296803653 pf=0.92 conn=delta status=variable vmaxpu=1.5 vminpu=0.92 daily=RES1_7
New load.bt1244539-2 phases=1 bus=1002955271.2.3.4 model=3 kv=0.22 kw=0.07630365296803653 pf=0.92 conn=delta status=variable vmaxpu=1.5 vminpu=0.92 daily=RES1_7
New load.bt1252377-1 phases=1 bus=1002924282.2.3.4 model=2 kv=0.22 kw=0.07951369863013699 pf=0.92 conn=delta status=variable vmaxpu=1.5 vminpu=0.92 daily=RES1_7
New load.bt1252377-2 phases=1 bus=1002924282.2.3.4 model=3 kv=0.22 kw=0.07951369863013699 pf=0.92 conn=delta status=variable vmaxpu=1.5 vminpu=0.92 daily=RES1_7
New load.bt1257361-1 phases=1 bus=1002955250.3.1.4 model=2 kv=0.22 kw=0.09873915525114155 pf=0.92 conn=delta status=variable vmaxpu=1.5 vminpu=0.92 daily=RES1_7
New load.bt1257361-2 phases=1 bus=1002955250.3.1.4 model=3 kv=0.22 kw=0.09873915525114155 pf=0.92 conn=delta status=variable vmaxpu=1.5 vminpu=0.92 daily=RES1_7
New load.bt1257794-1 phases=1 bus=1002924128.3.1.4 model=2 kv=0.22 kw=0.07328938356164384 pf=0.92 conn=delta status=variable vmaxpu=1.5 vminpu=0.92 daily=RES1_7
New load.bt1257794-2 phases=1 bus=1002924128.3.1.4 model=3 kv=0.22 kw=0.07328938356164384 pf=0.92 conn=delta status=variable vmaxpu=1.5 vminpu=0.92 daily=RES1_7
New load.bt1275226-1 phases=3 bus=1002939885.1.2.3.4 model=2 kv=0.22 kw=0.015873858447488585 pf=0.92 conn=delta status=variable vmaxpu=1.5 vminpu=0.92 daily=COM1_11
New load.bt1275226-2 phases=3 bus=1002939885.1.2.3.4 model=3 kv=0.22 kw=0.015873858447488585 pf=0.92 conn=delta status=variable vmaxpu=1.5 vminpu=0.92 daily=COM1_11
New load.bt1280776-1 phases=3 bus=1002955257.1.2.3.4 model=2 kv=0.22 kw=0.05987614155251141 pf=0.92 conn=delta status=variable vmaxpu=1.5 vminpu=0.92 daily=RES1_7
New load.bt1280776-2 phases=3 bus=1002955257.1.2.3.4 model=3 kv=0.22 kw=0.05987614155251141 pf=0.92 conn=delta status=variable vmaxpu=1.5 vminpu=0.92 daily=RES1_7
New load.bt1299035-1 phases=3 bus=1002955299.1.2.3.4 model=2 kv=0.22 kw=0.04760388127853881 pf=0.92 conn=delta status=variable vmaxpu=1.5 vminpu=0.92 daily=RES1_7
New load.bt1299035-2 phases=3 bus=1002955299.1.2.3.4 model=3 kv=0.22 kw=0.04760388127853881 pf=0.92 conn=delta status=variable vmaxpu=1.5 vminpu=0.92 daily=RES1_7
New load.bt1310394-1 phases=1 bus=1002923960.2.3.4 model=2 kv=0.22 kw=0.02004109589041096 pf=0.92 conn=delta status=variable vmaxpu=1.5 vminpu=0.92 daily=RES1_7
New load.bt1310394-2 phases=1 bus=1002923960.2.3.4 model=3 kv=0.22 kw=0.02004109589041096 pf=0.92 conn=delta status=variable vmaxpu=1.5 vminpu=0.92 daily=RES1_7
New load.bt1322233-1 phases=1 bus=1002924023.3.1.4 model=2 kv=0.22 kw=0.09537956621004566 pf=0.92 conn=delta status=variable vmaxpu=1.5 vminpu=0.92 daily=RES1_7
New load.bt1322233-2 phases=1 bus=1002924023.3.1.4 model=3 kv=0.22 kw=0.09537956621004566 pf=0.92 conn=delta status=variable vmaxpu=1.5 vminpu=0.92 daily=RES1_7
New load.bt1340432-1 phases=3 bus=1003311305.1.2.3.4 model=2 kv=0.22 kw=0.045129566210045664 pf=0.92 conn=delta status=variable vmaxpu=1.5 vminpu=0.92 daily=RES1_7
New load.bt1340432-2 phases=3 bus=1003311305.1.2.3.4 model=3 kv=0.22 kw=0.045129566210045664 pf=0.92 conn=delta status=variable vmaxpu=1.5 vminpu=0.92 daily=RES1_7
New load.bt1347869-1 phases=1 bus=1002924226.3.1.4 model=2 kv=0.22 kw=0.05363013698630137 pf=0.92 conn=delta status=variable vmaxpu=1.5 vminpu=0.92 daily=RES1_7
New load.bt1347869-2 phases=1 bus=1002924226.3.1.4 model=3 kv=0.22 kw=0.05363013698630137 pf=0.92 conn=delta status=variable vmaxpu=1.5 vminpu=0.92 daily=RES1_7
New load.bt1359073-1 phases=1 bus=1002924023.3.1.4 model=2 kv=0.22 kw=0.07726484018264841 pf=0.92 conn=delta status=variable vmaxpu=1.5 vminpu=0.92 daily=RES1_7
New load.bt1359073-2 phases=1 bus=1002924023.3.1.4 model=3 kv=0.22 kw=0.07726484018264841 pf=0.92 conn=delta status=variable vmaxpu=1.5 vminpu=0.92 daily=RES1_7
New load.bt1370622-1 phases=1 bus=1002924275.2.3.4 model=2 kv=0.22 kw=0.07515582191780823 pf=0.92 conn=delta status=variable vmaxpu=1.5 vminpu=0.92 daily=RES1_7
New load.bt1370622-2 phases=1 bus=1002924275.2.3.4 model=3 kv=0.22 kw=0.07515582191780823 pf=0.92 conn=delta status=variable vmaxpu=1.5 vminpu=0.92 daily=RES1_7
New load.bt1377288-1 phases=3 bus=1002955257.1.2.3.4 model=2 kv=0.22 kw=0.022595319634703195 pf=0.92 conn=delta status=variable vmaxpu=1.5 vminpu=0.92 daily=RES1_7
New load.bt1377288-2 phases=3 bus=1002955257.1.2.3.4 model=3 kv=0.22 kw=0.022595319634703195 pf=0.92 conn=delta status=variable vmaxpu=1.5 vminpu=0.92 daily=RES1_7
New load.bt1378753-1 phases=1 bus=1002955418.2.3.4 model=2 kv=0.22 kw=0.040523972602739725 pf=0.92 conn=delta status=variable vmaxpu=1.5 vminpu=0.92 daily=RES1_7
New load.bt1378753-2 phases=1 bus=1002955418.2.3.4 model=3 kv=0.22 kw=0.040523972602739725 pf=0.92 conn=delta status=variable vmaxpu=1.5 vminpu=0.92 daily=RES1_7
New load.bt1378791-1 phases=1 bus=1002923967.2.3.4 model=2 kv=0.22 kw=0.0293898401826484 pf=0.92 conn=delta status=variable vmaxpu=1.5 vminpu=0.92 daily=RES1_7
New load.bt1378791-2 phases=1 bus=1002923967.2.3.4 model=3 kv=0.22 kw=0.0293898401826484 pf=0.92 conn=delta status=variable vmaxpu=1.5 vminpu=0.92 daily=RES1_7
New load.bt1382318-1 phases=3 bus=1002951673.1.2.3.4 model=2 kv=0.22 kw=0.05771974885844749 pf=0.92 conn=delta status=variable vmaxpu=1.5 vminpu=0.92 daily=RES1_7
New load.bt1382318-2 phases=3 bus=1002951673.1.2.3.4 model=3 kv=0.22 kw=0.05771974885844749 pf=0.92 conn=delta status=variable vmaxpu=1.5 vminpu=0.92 daily=RES1_7
New load.bt1390557-1 phases=1 bus=1002924219.3.1.4 model=2 kv=0.22 kw=0.04206906392694064 pf=0.92 conn=delta status=variable vmaxpu=1.5 vminpu=0.92 daily=RES1_7
New load.bt1390557-2 phases=1 bus=1002924219.3.1.4 model=3 kv=0.22 kw=0.04206906392694064 pf=0.92 conn=delta status=variable vmaxpu=1.5 vminpu=0.92 daily=RES1_7
New load.bt1392743-1 phases=1 bus=1003325501.3.1.4 model=2 kv=0.22 kw=0.0478087899543379 pf=0.92 conn=delta status=variable vmaxpu=1.5 vminpu=0.92 daily=RES1_7
New load.bt1392743-2 phases=1 bus=1003325501.3.1.4 model=3 kv=0.22 kw=0.0478087899543379 pf=0.92 conn=delta status=variable vmaxpu=1.5 vminpu=0.92 daily=RES1_7
New load.bt1397041-1 phases=3 bus=1003311326.1.2.3.4 model=2 kv=0.22 kw=0.0398230593607306 pf=0.92 conn=delta status=variable vmaxpu=1.5 vminpu=0.92 daily=RES1_7
New load.bt1397041-2 phases=3 bus=1003311326.1.2.3.4 model=3 kv=0.22 kw=0.0398230593607306 pf=0.92 conn=delta status=variable vmaxpu=1.5 vminpu=0.92 daily=RES1_7
New load.bt1403934-1 phases=3 bus=1002951792.1.2.3.4 model=2 kv=0.22 kw=0.030792237442922383 pf=0.92 conn=delta status=variable vmaxpu=1.5 vminpu=0.92 daily=RES1_7
New load.bt1403934-2 phases=3 bus=1002951792.1.2.3.4 model=3 kv=0.22 kw=0.030792237442922383 pf=0.92 conn=delta status=variable vmaxpu=1.5 vminpu=0.92 daily=RES1_7
New load.bt1422359-1 phases=1 bus=1002924261.1.2.4 model=2 kv=0.22 kw=0.08634246575342466 pf=0.92 conn=delta status=variable vmaxpu=1.5 vminpu=0.92 daily=RES1_7
New load.bt1422359-2 phases=1 bus=1002924261.1.2.4 model=3 kv=0.22 kw=0.08634246575342466 pf=0.92 conn=delta status=variable vmaxpu=1.5 vminpu=0.92 daily=RES1_7
New load.bt1427239-1 phases=3 bus=1002924037.1.2.3.4 model=2 kv=0.22 kw=0.03043436073059361 pf=0.92 conn=delta status=variable vmaxpu=1.5 vminpu=0.92 daily=RES1_7
New load.bt1427239-2 phases=3 bus=1002924037.1.2.3.4 model=3 kv=0.22 kw=0.03043436073059361 pf=0.92 conn=delta status=variable vmaxpu=1.5 vminpu=0.92 daily=RES1_7
New load.bt1429351-1 phases=1 bus=1002924023.3.1.4 model=2 kv=0.22 kw=0.024670091324200907 pf=0.92 conn=delta status=variable vmaxpu=1.5 vminpu=0.92 daily=RES1_7
New load.bt1429351-2 phases=1 bus=1002924023.3.1.4 model=3 kv=0.22 kw=0.024670091324200907 pf=0.92 conn=delta status=variable vmaxpu=1.5 vminpu=0.92 daily=RES1_7
New load.bt1430047-1 phases=1 bus=1003325536.2.3.4 model=2 kv=0.22 kw=0.2286695205479452 pf=0.92 conn=delta status=variable vmaxpu=1.5 vminpu=0.92 daily=RES1_7
New load.bt1430047-2 phases=1 bus=1003325536.2.3.4 model=3 kv=0.22 kw=0.2286695205479452 pf=0.92 conn=delta status=variable vmaxpu=1.5 vminpu=0.92 daily=RES1_7
New load.bt1433535-1 phases=1 bus=1002924072.2.3.4 model=2 kv=0.22 kw=0.016828767123287673 pf=0.92 conn=delta status=variable vmaxpu=1.5 vminpu=0.92 daily=RES1_7
New load.bt1433535-2 phases=1 bus=1002924072.2.3.4 model=3 kv=0.22 kw=0.016828767123287673 pf=0.92 conn=delta status=variable vmaxpu=1.5 vminpu=0.92 daily=RES1_7
New load.bt1438794-1 phases=1 bus=1002924240.1.2.4 model=2 kv=0.22 kw=0.030564497716894977 pf=0.92 conn=delta status=variable vmaxpu=1.5 vminpu=0.92 daily=RES1_7
New load.bt1438794-2 phases=1 bus=1002924240.1.2.4 model=3 kv=0.22 kw=0.030564497716894977 pf=0.92 conn=delta status=variable vmaxpu=1.5 vminpu=0.92 daily=RES1_7
New load.bt1448507-1 phases=1 bus=1002924240.1.2.4 model=2 kv=0.22 kw=0.0010850456621004565 pf=0.92 conn=delta status=variable vmaxpu=1.5 vminpu=0.92 daily=RES1_7
New load.bt1448507-2 phases=1 bus=1002924240.1.2.4 model=3 kv=0.22 kw=0.0010850456621004565 pf=0.92 conn=delta status=variable vmaxpu=1.5 vminpu=0.92 daily=RES1_7
New load.bt1462114-1 phases=1 bus=1002955383.3.1.4 model=2 kv=0.22 kw=0.011823059360730595 pf=0.92 conn=delta status=variable vmaxpu=1.5 vminpu=0.92 daily=RES1_7
New load.bt1462114-2 phases=1 bus=1002955383.3.1.4 model=3 kv=0.22 kw=0.011823059360730595 pf=0.92 conn=delta status=variable vmaxpu=1.5 vminpu=0.92 daily=RES1_7
New load.bt1484576-1 phases=3 bus=1002937946.1.2.3.4 model=2 kv=0.22 kw=3.321763698630137 pf=0.92 conn=delta status=variable vmaxpu=1.5 vminpu=0.92 daily=COM1_11
New load.bt1484576-2 phases=3 bus=1002937946.1.2.3.4 model=3 kv=0.22 kw=3.321763698630137 pf=0.92 conn=delta status=variable vmaxpu=1.5 vminpu=0.92 daily=COM1_11
New load.bt1484762-1 phases=1 bus=1002959541.2.3.4 model=2 kv=0.22 kw=2.9761729452054793 pf=0.92 conn=delta status=variable vmaxpu=1.5 vminpu=0.92 daily=COM1_11
New load.bt1484762-2 phases=1 bus=1002959541.2.3.4 model=3 kv=0.22 kw=2.9761729452054793 pf=0.92 conn=delta status=variable vmaxpu=1.5 vminpu=0.92 daily=COM1_11
New load.bt1486202-1 phases=1 bus=1002951666.2.3.4 model=2 kv=0.22 kw=1.866126712328767 pf=0.92 conn=delta status=variable vmaxpu=1.5 vminpu=0.92 daily=RES1_7
New load.bt1486202-2 phases=1 bus=1002951666.2.3.4 model=3 kv=0.22 kw=1.866126712328767 pf=0.92 conn=delta status=variable vmaxpu=1.5 vminpu=0.92 daily=RES1_7
New load.bt1488165-1 phases=3 bus=1002939927.1.2.3.4 model=2 kv=0.22 kw=1.0459269406392693 pf=0.92 conn=delta status=variable vmaxpu=1.5 vminpu=0.92 daily=COM1_11
New load.bt1488165-2 phases=3 bus=1002939927.1.2.3.4 model=3 kv=0.22 kw=1.0459269406392693 pf=0.92 conn=delta status=variable vmaxpu=1.5 vminpu=0.92 daily=COM1_11