New LoadShape.A3A npts=24 interval=1
~ mult=(0.9574714295438559 0.9581218754018015 0.9515720368787673 0.945937360551215 0.9473138855064023 0.951503966963401 0.9467163829159638 0.9519728930470364 0.9761452763260396 0.990833251397324 0.996513307668454 0.9960368182608891 0.9979805925107966 0.9993495541420543 0.9977915094125566 0.9900844823282935 0.9904626485247736 0.9882919745569783 0.9903794519615481 0.9848355355211509 0.9940249740956155 1.0 0.9829749578344691 0.9727644705295083)
New LoadShape.A3 npts=24 interval=1
~ mult=(0.9221998658618376 0.914151576123407 0.9309188464118041 0.7344064386317906 0.6525821596244131 0.7826961770623742 0.9014084507042252 0.9289067739771963 0.9845741113346745 0.7397719651240778 0.636485580147552 0.6478873239436619 0.8417169684775317 0.92018779342723 0.9161636485580147 0.7645875251509052 0.6391683433936953 0.6378269617706237 0.6425217974513748 0.6405097250167673 0.6445338698859825 0.6472166331321261 0.8698859825620388 1.0)
New LoadShape.A2 npts=24 interval=1
~ mult=(0.9752846702797422 0.9892466116318925 0.9894774853705969 1.0 0.9832586940242181 0.986215653831468 0.9728516162641669 0.9727598587526307 0.9769215058887604 0.9659490834608565 0.954802025769061 0.9644306446409174 0.9866359624326988 0.9675799992304208 0.9596710937199383 0.9606330676312059 0.9637794623009824 0.9716380491761065 0.9647473560517039 0.9594195005431453 0.9654902959031751 0.9823144796313124 0.968849804793294 0.980183337427889)
New LoadShape.COM1_1 npts=24 interval=1
~ mult=(0.9983173314856973 0.9984163119865387 0.9918835989310107 0.9952489359596159 0.9902999109175492 0.9968326239730773 0.9903988914183907 0.9937642284469959 0.9918835989310107 1.0 0.9903988914183907 0.9934672869444718 0.9813916658418292 0.9888152034049292 0.9953479164604574 0.9933683064436306 0.9857468078788478 0.9860437493813718 0.9903988914183907 0.999703058497476 0.9953479164604574 0.9934672869444718 1.0 0.9934982254775809)
New LoadShape.COM1_10 npts=24 interval=1
~ mult=(0.053430470651077214 0.057036025876906635 0.05524066710190516 0.05445427028310285 0.05215443053000178 0.05782242269570894 0.0528963143213247 0.05341563297525075 0.06995964152175203 0.6096800997091816 0.8157754169386907 0.734435278058045 0.6964508279423112 0.7262448810018398 0.7329515104753991 0.9471185233545018 0.9594486319662887 0.9728618909134072 1.0 0.5873048845628821 0.19526381387619443 0.10605970680752566 0.05065582527152947 0.05169649933230459)
New LoadShape.COM1_11 npts=24 interval=1
~ mult=(0.14248828888642986 0.12157426874700306 0.13158865405186085 0.12745748957987532 0.11801482792962267 0.12098410239386227 0.1236398509829958 0.34253623990262255 0.7182693371694145 0.9225406661502711 1.0 0.9749548153885876 0.7875216701707793 0.978200730330862 0.8716019327948066 0.8697023348456345 0.9645346907159456 0.8748109623400095 0.19125078381468777 0.12391649146103056 0.12164803954114566 0.11985909778318764 0.11703736490723322 0.12625921234923093)
New LoadShape.COM1_12 npts=24 interval=1
~ mult=(0.06503531545289683 0.05132671566288059 0.06391381120549776 0.05265104514651141 0.0621599694569056 0.1559845375584614 0.30732795647609046 0.5394674047914478 1.0 0.8461272310775985 0.8610169895962585 0.6980170850434285 0.6608284814355255 0.7851245585568387 0.8708241863128757 0.9162451083325378 0.5750691991982438 0.14898110146034169 0.0676243199389138 0.05587238713372148 0.0569700295886227 0.058747733129712695 0.052698768731507105 0.06533686782953134)
New LoadShape.COM1_13 npts=24 interval=1
~ mult=(0.08300065862870815 0.08761105958573598 0.08158931139696493 0.08372649434789037 0.08089035848219685 0.08956006290576232 0.08226138150731882 0.08289312741105151 0.27518582738551284 0.9546755917577322 0.9749721090904202 0.9504012258558813 0.9541379356694489 0.9964649112195384 1.0 0.9700928800892508 0.9726064223019744 0.9605898087288466 0.7127303520303239 0.12024678414452195 0.094829092570937 0.08869981316450931 0.08661639582241218 0.08223623662244445)
New LoadShape.COM1_14 npts=24 interval=1
~ mult=(0.09250894033502728 0.09498713846539933 0.09755944538553235 0.09213250517598343 0.10195118890771064 0.08946608946608946 0.0989710772319468 0.14555492816362384 0.6900997553171466 0.8353409875149006 0.867871259175607 0.9338415207980426 1.0 0.9310496267018006 0.8869753434970826 0.8621306230001883 0.9153648284083068 0.9063617541878412 0.5941401593575507 0.11202082941213376 0.09219524436915741 0.14571177614655875 0.20939205721814416 0.18233437295313384)
New LoadShape.COM1_15 npts=24 interval=1
~ mult=(0.07550161812297734 0.06686084142394823 0.05877022653721682 0.06077669902912621 0.07210355987055016 0.08521035598705501 0.09420711974110031 0.1456957928802589 0.18035598705501618 0.15517799352750808 0.5463754045307444 0.6060194174757281 0.6597087378640776 0.9892556634304206 0.7907766990291261 1.0 0.9258899676375404 0.6822006472491909 0.3413268608414239 0.10737864077669901 0.08313915857605177 0.07679611650485436 0.07501618122977347 0.09359473116504854)
New LoadShape.COM1_16 npts=24 interval=1
~ mult=(0.028735312134543632 0.02522693100183772 0.02082753243860333 0.027788606114607116 0.02962632956507211 0.02695327727348666 0.027788606114607116 0.04694548087096954 0.48955838948599434 0.7887174917859331 0.567856546193685 0.30957286851924043 0.06426463217686695 0.06003229938185666 0.2025950882664142 0.7279055521523641 1.0 0.8686863061758644 0.6061146071170017 0.5364481817675557 0.09216461547029012 0.04087542462549423 0.03742273208219636 0.040035564515230826)
New LoadShape.COM1_17 npts=24 interval=1
~ mult=(0.17402857640703956 0.08159086948945811 0.045608991113434395 0.05371144798745427 0.06525527095312772 0.11696288552012549 0.11500261369576582 0.11901028053667888 0.0850322355811117 0.05915664749956439 0.21297264331765114 0.4538247081373062 0.5108032758320264 0.4630597665098449 0.5004791775570657 0.7538769820526224 0.8752831503746298 0.5901725039205438 0.6079456351280711 0.6796915838996341 0.6175291862693849 1.0 0.856856595225649 0.5604831075535808)
New LoadShape.COM1_18 npts=24 interval=1
~ mult=(0.1072156156725257 0.14345951580044533 0.1321362581134221 0.13578433694982708 0.14184867579476002 0.11252191216184204 0.2778225233334913 0.616241057469086 0.9309707679916615 0.44174918273558533 0.3753730989719051 0.4638271663429194 0.6458047093381343 1.0 0.6830435400578009 0.7121334154545885 0.5139053394608425 0.4079215426161937 0.30885488226654667 0.2537546785426636 0.1407116122613351 0.1329890557634908 0.09589235798550244 0.131008544321789)
New LoadShape.COM1_19 npts=24 interval=1
~ mult=(0.2644398358558002 0.2536733883422318 0.24720910735560164 0.23139037197193665 0.22419803203459382 0.20524643692362002 0.2430613775757843 0.27789789524776065 0.35452058421215193 0.4201341393460707 0.4308343996823015 0.4472488196620042 0.5034637956139963 0.525548250452279 0.7970039271058553 0.8682433923134625 0.7846048625512951 0.9284516612981512 0.8627057318095573 1.0 0.6524511318007324 0.4290473458941888 0.35831531571283587 0.2715434906014208)
New LoadShape.COM1_2 npts=24 interval=1
~ mult=(0.37148116067561715 0.733759203118233 0.4147899523603291 0.6503897791251624 0.5098527501082719 0.6687960155911649 0.7601775660459072 0.6787570376786487 0.8541576440017323 0.6880684278908619 0.8470116933737547 0.6051320918146383 0.8852317020355132 0.6272195755738413 0.8812256388046772 0.7188176699870074 1.0 0.7393893460372456 0.6980294499783456 0.6006929406669552 0.5145084452143784 0.6476829796448679 0.45116933737548715 0.707674343980078)
New LoadShape.COM1_20 npts=24 interval=1
~ mult=(0.14869444246272384 0.1464828422629664 0.14418206463579938 0.13564778483270315 0.14109652564742814 0.13864414639366485 0.23970000713419418 0.3909805949917957 0.7695922808018835 1.0 0.8857815509738176 0.7048137975315688 0.5112363558536064 0.33974816294499544 0.30565563244631516 0.30942783762574017 0.2803381608047371 0.2672825854319755 0.25014268388385535 0.24312442034672185 0.19668081615181565 0.21309838053791821 0.2134640079902975 0.17932745210280374)
New LoadShape.COM1_21 npts=24 interval=1
~ mult=(0.0767605602480107 0.07019557085607284 0.071458753096798 0.07181902690489216 0.07495474338274867 0.06654390670242717 0.07482575646380138 0.07853524233973375 0.07628019517055183 0.08167540664238154 0.09456965071231914 0.10132144874549102 0.08825373950869327 0.08848057857304885 0.12181702538373607 0.10017390994933927 0.11157368488940483 0.28423379546232913 0.8501394393072068 1.0 0.9322507327791345 0.40365789110835343 0.17666760070987284 0.08304862116986687)
New LoadShape.COM1_22 npts=24 interval=1
~ mult=(0.22785690525870156 0.17675164050923828 0.18155976896791562 0.20021772657171372 0.20094348181075933 0.1929299343796305 0.20055036438960963 0.22622395597084885 0.22453052707974236 0.4052435816021047 0.4835949076174061 0.38549699113973823 0.32486618887780094 0.7476488554235085 0.9821887568417551 0.9991532855544468 1.0 0.9882064773655085 0.526807584142248 0.23744292237442924 0.2501738788593547 0.25195802715534193 0.26801536181922647 0.2278661616619795)
New LoadShape.COM1_23 npts=24 interval=1
~ mult=(0.20166157941844717 0.13772290179698435 0.1829114359809974 0.1454570490900328 0.22406077157872994 0.1761411883505841 0.17591168843090904 0.18463268537856012 0.2194019232093269 0.23959791614072937 0.282032451288642 0.25515801069469624 0.3572625249581163 0.20673352764326533 0.3206572877699493 0.7187248984462855 1.0 0.9310811741215892 0.3655245220664173 0.25846280953801665 0.25729235994767397 0.23762421683152413 0.2017533793863172 0.19247496871916095)
New LoadShape.COM1_24 npts=24 interval=1
~ mult=(0.23106290362864382 0.16409176865165734 0.17900595853997928 0.15324508509651408 0.19270703250437077 0.26024904556320694 0.3024226638598494 0.3627216612552182 0.27865986370285795 0.2626039176508367 0.6159774503157669 0.5152888286295358 0.3488778677703643 0.296892282441931 0.4213793841652692 0.2728440432440147 0.4651229171869982 0.2664930245834374 0.24351518178898915 1.0 0.406393834516716 0.5664894565954258 0.588218503585828 0.23015560420308986)
New LoadShape.COM1_25 npts=24 interval=1
~ mult=(0.3307511851815649 0.4164019353892771 0.5397096916084257 0.38118860270759003 0.29795708909632956 0.40525878500562046 0.4891500904159131 0.4468745418112506 0.4768339768339768 0.5250476516299301 0.5885587214701138 1.0 0.5716485020282488 0.4640046918527931 0.7362054640535652 0.5843800400762426 0.8042128928204878 0.6138751771663162 0.5952543863936269 0.5679829920336249 0.7023850251698353 0.9628561653878109 0.45088216607203946 0.3900955048629099)
New LoadShape.COM1_26 npts=24 interval=1
~ mult=(0.14778518228145823 0.14957719661757293 0.10500084000672005 0.08131265050120401 0.10035280282242258 0.6612532900263203 0.8392787142297139 0.2693061544492356 0.49325194601556804 0.1585372682981464 0.18345746765974127 0.21856974855798847 0.3179145433163465 1.0 0.30906647253178027 0.37553900431203446 0.4631237049896399 0.9998319986559893 0.5929887439099514 0.3164025312202498 0.32060256482051863 0.32704261634093074 0.5023800190401524 0.28252639127513024)
New LoadShape.COM1_3 npts=24 interval=1
~ mult=(0.8121986769817243 0.8980266846058976 0.7457674627200359 0.7348918040139029 0.7156631909406884 0.6980603206637515 0.725866128489741 0.8943267182419554 0.8319878910191726 0.6339836304518444 0.7515977127480659 0.7596703666330304 0.7374145083529543 0.8254849198340621 0.6974436596030944 0.5566206973875995 0.8185334678775648 0.9548155622827671 1.0 0.9228613073214488 0.7859625518555893 0.8641103262697611 0.8342863549725305 0.9134220468101805)
New LoadShape.COM1_4 npts=24 interval=1
~ mult=(0.6549945476260537 0.5553632319595658 0.5805999342253301 0.5785228393886418 0.5733474114205597 0.5424333166011804 0.5490973292022224 0.5288802727917885 0.6156682187180863 0.6954286604469215 0.8021220985581499 0.8996936285115884 0.8818652311633463 0.9684108493586969 0.8812247935887005 0.9538365672545998 0.9482803385664584 1.0 0.934156093676977 0.917106606892493 0.8208159520883456 0.783116680802451 0.6660031502605024 0.6263685097710002)
New LoadShape.COM1_5 npts=24 interval=1
~ mult=(0.9585629428182926 0.9484481977146403 0.9423292540375486 0.8880459934635846 0.6468069371883871 0.5985829814642526 0.41143634151578046 0.4661251461151269 0.20685130847587013 0.2070063694267516 0.22736706505403276 0.18816050001192777 0.18692001240487607 0.20624299243779673 0.1840931319926525 0.21827810777928866 0.3407404756792863 0.49100646484887533 0.5286624203821657 0.7765810253107184 1.0 0.8476227963453328 0.692478351105704 0.9139229518833941)
New LoadShape.COM1_6 npts=24 interval=1
~ mult=(0.12056686046511632 0.07943313953488373 0.12252906976744188 0.11918604651162794 0.12143895348837211 0.6313226744186048 0.9520348837209305 1.0 0.9484738372093025 0.9417151162790698 0.9279069767441862 0.8921511627906978 0.8539970930232559 0.8644622093023256 0.8491279069767442 0.8926598837209303 0.9730377906976745 0.9760174418604652 0.9731104651162791 0.9529796511627908 0.9119912790697676 0.4488372093023257 0.1725290697674419 0.09538708132267444)
New LoadShape.COM1_7 npts=24 interval=1
~ mult=(0.2881171465321065 0.3270340687972033 0.2880511856469114 0.31796444708287985 0.2502226179875334 0.294746215494212 0.24052636786385678 0.4160812638105604 0.8178490155337885 0.9095016655123513 0.9248375713202073 0.9278717720391808 0.8043929949539923 0.8002374591867023 0.8373074766663369 0.8791926387652124 0.9611820190626958 1.0 0.9242439233534515 0.7899475610962701 0.5506414696085221 0.3679957785033476 0.2864021635170344 0.2588469039279707)
New LoadShape.COM1_8 npts=24 interval=1
~ mult=(0.07823690264334388 0.07018533790529102 0.07823690264334388 0.07357090151482268 0.07689135813186335 0.07504666001128521 0.062090368505577496 0.3984113893832197 0.5775207257259429 0.5955987673076087 0.5626329267763358 0.5192716697773341 0.5446850991796518 0.5860497417422631 0.7271148921394157 0.697838447849299 0.9167715612656799 1.0 0.40390207908329345 0.1301054733278354 0.103997569338947 0.10851165415165588 0.11016103129476104 0.09865363878640565)
New LoadShape.COM1_9 npts=24 interval=1
~ mult=(0.09391657965598725 0.0911139198769028 0.09204813980326428 0.09875254162774084 0.09682914766170249 0.09303731384294116 0.25339341649722485 0.3646754959608727 0.641754135297027 0.7156674177062153 0.6870363246689014 0.7003352200912238 0.6506017475408035 0.6118590976534594 0.6102654283673133 0.617134692531736 0.7383634665054679 0.82936747815574 0.9330109358685499 1.0 0.33170302797164375 0.09963180744078695 0.09034456229048744 0.09028473979227347)
New LoadShape.COM2_1 npts=24 interval=1
~ mult=(0.9038583999073753 0.8943064721546833 0.9069700127359037 0.8805285400023155 0.8851597777005905 0.8956379529929374 0.9239174481880282 0.92320828991548 0.9378545791362742 0.9387952992937363 0.9571610512909574 0.9699259001968276 0.9699837906680558 1.0 0.9820973717726061 0.9907664698390645 0.9803027671645247 0.9678852610860251 0.9746584462197522 0.9173324070857937 0.8930473544054648 0.8808324649762648 0.9274342943151556 0.9059569626027556)
New LoadShape.COM2_10 npts=24 interval=1
~ mult=(0.03590190581639144 0.03634950175504723 0.04348747909255813 0.060661028528351674 0.14047445169497513 0.5090108129755707 0.8637894885627458 0.8098659567952131 0.8146481660345357 0.7909020236047964 0.6953049541803106 0.5989540389644044 0.4826733256378243 0.7207001342787817 0.8066621121816768 0.7876746213102782 0.93698320337346 0.8992202407594998 1.0 0.9420952201465288 0.8699616009799996 0.6868006313458503 0.37621616528068974 0.19974675928761573)
New LoadShape.COM2_11 npts=24 interval=1
~ mult=(0.1425671675453187 0.13737983141157564 0.13938146655013955 0.20027628203321018 0.2682191085675622 0.6513489893152151 1.0 0.9453074342420568 0.8806630768797045 0.8408277184178624 0.8752783964365256 0.8997490908065743 0.884609963068422 0.7442699670153081 0.8485805305742719 0.8585887062670913 0.6960897634687491 0.375264300414423 0.2941557892362775 0.17324011164049502 0.16991345042429024 0.14953060246398467 0.14496349130275432 0.14659615643765328)
New LoadShape.COM2_12 npts=24 interval=1
~ mult=(0.11585211153908248 0.1201305440874599 0.11897732776714255 0.1202228013930853 0.1245242982678691 0.11918490670479966 0.2073021657402495 0.48018774361694755 0.8983785778536336 0.871773877343912 0.8448347441012984 0.8109417164471712 0.7225476854948449 0.667158705630002 0.8614987199298842 0.9941993219088034 0.9776045390594367 1.0 0.7194340014299881 0.4367691491569988 0.2591046428489056 0.21388703092926167 0.1891505408584542 0.13114611123924624)
New LoadShape.COM2_13 npts=24 interval=1
~ mult=(0.4858537557282327 0.4681211396692568 0.4740984259812711 0.455269974098426 0.46104801753337316 0.4741980474198047 0.4717075114564654 0.40117553297469616 0.7787407850169357 1.0 0.9470013947001394 0.9234907352062163 0.6459454074516836 0.7163777644949194 0.9717075114564654 0.8751743375174338 0.9164176130703329 0.43753735803945004 0.41293086272165763 0.5340705319784819 0.47648934050607683 0.4810719266786212 0.4999003785614664 0.49415068101215376)
New LoadShape.COM2_14 npts=24 interval=1
~ mult=(0.05888263284612031 0.05710060854234203 0.058863675140760977 0.06221918898936473 0.05710060854234203 0.05821911315854329 0.18870499914690328 0.6545716506474056 0.8833721966293201 0.9610608731919089 0.937761853305276 0.9610419154865496 0.9480558873153995 1.0 0.9079792981857476 0.8947847352556448 0.8641301256895866 0.5193652960245693 0.07588769455345126 0.060209672221274345 0.061574627007147054 0.0586551403818082 0.057081650836982696 0.05910456456046561)
New LoadShape.COM2_15 npts=24 interval=1
~ mult=(0.12159552791320397 0.11871512849781837 0.11213288242636311 0.10692682718670322 0.09119131186191154 0.10338500272037723 0.11373310432379957 0.15608564387595078 0.6176856524104677 0.9074324973062932 0.9996266148905982 0.9084886437586012 0.9125745436700556 0.9687423322700749 1.0 0.9970769280006829 0.9919028771989717 0.9233813755507432 0.5740636034863501 0.2273381908958042 0.15003680510364104 0.15637368381748937 0.13646692341338 0.12162407647993856)
New LoadShape.COM2_16 npts=24 interval=1
~ mult=(0.08370854514645364 0.07667231501654159 0.07964173323650449 0.07684983458403938 0.07694666343903817 0.07888324053901395 0.07867344468651657 0.07525215847655935 0.1187444525135157 0.6361333010570482 0.8879851529089 0.8870491406439119 1.0 0.9009440813362383 0.8677801984991527 0.8551117566368109 0.8845477285564431 0.961833292987977 0.9324134592108448 0.44880174291938996 0.1259904784959251 0.10144436375373193 0.10302590171871218 0.10562406845800047)
New LoadShape.COM2_17 npts=24 interval=1
~ mult=(0.2459430104778942 0.25536672629695883 0.25651673907487865 0.2610529005877843 0.2580181446460516 0.34177740863787376 0.3938154868387426 0.5590339892665473 0.7484347048300536 0.855928954766164 0.9095003833375925 0.8480066445182725 0.87480833120368 0.9811525683618706 0.9879568106312292 1.0 0.7352095578839765 0.3130909787886532 0.23351648351648352 0.2391707130079223 0.22709557883976486 0.20706618962432913 0.21198568872987475 0.223321696811909)
New LoadShape.COM2_18 npts=24 interval=1
~ mult=(0.03763407416622975 0.03837164870124676 0.03651438270343283 0.036167811536376646 0.035972309852396224 0.03837164870124676 0.08869555944584158 0.3062178421945953 0.5260328265100283 0.5616141329944637 0.4641565435302272 0.40803867378766734 0.40262683171748226 0.6748629266602093 1.0 0.9216749162453013 0.763025299695195 0.5402866765602367 0.2473807217566715 0.09192133723151844 0.05746860865006087 0.05688210359811963 0.052181176742408755 0.05469442205258995)
New LoadShape.COM2_19 npts=24 interval=1
~ mult=(0.3140058456434157 0.2903599547094294 0.27482423572162096 0.29628459330647494 0.2886220607209627 0.2945730310451062 0.2713484477446875 0.4200173789398846 0.5643152434368169 0.7780762040182214 0.7031887721515654 0.8377438976222449 1.0 0.9177660162730072 0.7928746346472864 0.3843905521763172 0.3344919293256444 0.31416383600600356 0.34752613423914475 0.3914474550385759 0.410090317823946 0.44145140479764067 0.38636543170866566 0.3431463360191695)
New LoadShape.COM2_2 npts=24 interval=1
~ mult=(0.6416075512374182 0.6021179589517996 0.596815778357198 0.5686734352012353 0.5827446067792167 0.5687462673522601 0.6818691643238993 0.7495447990560954 0.7642568935630946 0.7999300811350163 0.8240083902637981 0.8607303608104763 0.8411676450452288 0.9654338611236544 0.9454050195918487 0.9261918981515201 0.9504741373031712 0.9635984909178308 1.0 0.9240069336207776 0.8893096968725874 0.804081513743427 0.8691351910387322 0.772567214534384)
New LoadShape.COM2_20 npts=24 interval=1
~ mult=(0.05623814791403287 0.056218394437420986 0.033106826801517074 0.031012958280657404 0.02915613147914033 0.028682048040455124 0.07652496839443743 0.1975742730720607 0.18613701011378003 0.203638590391909 0.23721950063211128 0.4131044563843237 0.7429282553729457 0.9225466182048042 0.8304164032869785 0.938882743362832 1.0 0.5992612199747157 0.31305309734513276 0.19992493678887488 0.05177386219974716 0.06718157395701645 0.03917114412136537 0.053434922171302156)
New LoadShape.COM2_21 npts=24 interval=1
~ mult=(0.18406988694758478 0.16992120589242893 0.1593696471394313 0.16666666666666666 0.16258992805755393 0.16382322713257966 0.16748886605001714 0.16101404590613225 0.14241178485782802 0.5226789996574169 1.0 0.8377869133264817 0.7726961288112367 0.7418979102432339 0.7229530661185337 0.6100719424460431 0.4559095580678314 0.22007536827680713 0.20993490921548474 0.20757108598835217 0.18489208633093526 0.1937649880095923 0.17601918465227817 0.18289076680369987)
New LoadShape.COM2_22 npts=24 interval=1
~ mult=(0.11487343885660856 0.08340727595385981 0.09513314442186413 0.08890288233105303 0.07399986642623389 0.08757668565322344 0.193300321531137 0.3181345469464083 0.10360553758670371 0.10911068494719066 0.12748661877093054 0.1518447491198443 0.15126274913892626 0.1192718321550219 0.10966406197822748 0.10699258665598076 0.11679117649864995 0.15617635553520146 0.6928471248246845 0.9899533445916938 1.0 0.647880470561296 0.34771159515699696 0.15450367418496153)
New LoadShape.COM2_23 npts=24 interval=1
~ mult=(0.15413164967364876 0.1375367945053539 0.14555693016509536 0.1380060577620409 0.14252804914466108 0.1490977347382791 0.18535898639136555 0.5470329764088563 1.0 0.8831107887888743 0.6639221876199821 0.3934132502879571 0.37276566699372893 0.3551469647199351 0.2473443965701122 0.30779403609061046 0.2700396740753381 0.24533936265517686 0.2664988695021544 0.25088520114329593 0.23876967706155883 0.22315600870270041 0.18843052770786228 0.1516321713664093)
New LoadShape.COM2_24 npts=24 interval=1
~ mult=(0.21024016439059887 0.1690568945588424 0.17693394409007235 0.17830386574767754 0.17783295517787576 0.17141144740785133 0.15741256046919813 0.1840404126888993 0.1309987585084978 0.1754784023288668 0.1712402072006507 0.15017766171497066 0.21893060490603192 0.5985273342180745 0.7192944903463332 0.9746992593861038 1.0 0.5535339697761034 0.35438160880174663 0.44959116400530846 0.7702384519885267 0.6195898797037545 0.682135365383792 0.27275703861466666)
New LoadShape.COM2_25 npts=24 interval=1
~ mult=(0.012881288625251298 0.011441761187361942 0.011714775011789233 0.00995259487230399 0.011441761187361944 0.011714775011789233 0.011441761187361944 0.8059864485865331 0.7681616241840609 0.5870541808344296 0.713335484351344 0.7511851281924004 0.44312625648407833 0.5586111042168226 0.5647911444243132 1.0 0.6163659378024869 0.5961132759176987 0.3587153458588767 0.023156536199151177 0.01439527437889355 0.01350177458985878 0.012012608274800825 0.01348858804695838)
New LoadShape.COM2_26 npts=24 interval=1
~ mult=(0.8034639659474534 0.7673271686481726 0.6823719360046969 0.6515485102010862 0.6969616908850728 0.7121092029942757 0.506032584764421 0.3889329223543226 0.44805518861001026 0.3918684867165713 0.4558050785263468 0.4175253192426244 0.3531777484221341 0.3678849258769999 0.33574049611037726 0.37610450609129603 0.3982973726698958 0.6255981212388082 1.0 0.9503008953471306 0.9008953471304859 0.8505504183179216 0.8192573022163512 0.8443710014677823)
New LoadShape.COM2_27 npts=24 interval=1
~ mult=(0.2812656956303365 0.30745497596326327 0.3046566692975532 0.5871421396283274 0.348425055607376 0.33048719236564544 0.30594819545095786 0.5229963406758986 0.5961828227021596 0.7868981846882399 0.47621439334146515 0.5774556934777929 0.4781516825715721 0.5122336227308603 0.7928535552844944 1.0 0.9265982636148381 0.6959890937791491 0.568989022027696 0.6253139126067302 0.798737174427782 0.47384659539355667 0.4765731506062997 0.37526880383152755)
New LoadShape.COM2_28 npts=24 interval=1
~ mult=(0.38760984820974653 0.38760984820974653 0.37824097610574486 0.37903987217662866 0.3542014670636938 0.3593579780666715 0.36967100007262693 0.29065291597065873 0.6123901517902536 0.6354855109303509 0.4648122594233423 0.3104074369961508 0.5994625608250419 0.5488416006972184 0.4399738543104075 0.3705425230590457 0.7444258842326967 0.4425884232696638 0.5163047425375845 0.6021497566998331 0.6294574769409543 1.0 0.5359140097320068 0.4004840496041834)
New LoadShape.COM2_29 npts=24 interval=1
~ mult=(0.23576786069871897 0.22255901940394274 0.21831094984180366 0.21651879549527625 0.21238135274465123 0.2177799411465363 0.22028010708675355 0.24771555634223513 0.3867734584153815 0.6022523618824258 0.778635750160409 0.3930128105847734 0.24649866141558066 0.6793149987831051 0.8746155718299886 0.3130960019470319 0.5383543155519173 1.0 0.3127862468747926 0.4523751576432064 0.3288050091820254 0.2506582295285086 0.22373166360599153 0.23944146202181563)
New LoadShape.COM2_3 npts=24 interval=1
~ mult=(0.5270834007049768 0.5341655078743976 0.533842123985383 0.5842576722827668 0.593732820230896 0.5904666429518481 0.669825049316043 0.814086602205478 0.8515667949422758 0.8535394366652652 0.8970022313488342 0.9021440351841672 1.0 0.9520421692591274 0.9061216570190472 0.8526016233871228 0.8670892216149791 0.7744720758011836 0.7673576302428612 0.6012029880671345 0.530511269928532 0.5369142709310222 0.5561556123273939 0.529277247226983)
New LoadShape.COM2_4 npts=24 interval=1
~ mult=(0.6120470083560481 0.5464497966843916 0.5817954332186425 0.5834040841860673 0.5493989901246705 0.5887215693283883 0.9137137494972967 1.0 0.685151257875687 0.5859511148844899 0.6236203583716878 0.6870280173376827 0.6162473747709907 0.6386791188167479 0.6316636132088119 0.6806827829661737 0.7585683006389919 0.7215693283882212 0.6531569775235713 0.7230439251083607 0.6754546673220431 0.5444836677242058 0.646409580410206 0.5737697523124358)
New LoadShape.COM2_5 npts=24 interval=1
~ mult=(0.3509585652442795 0.3411174746578473 0.3239762308085289 0.3232636928289102 0.28189615767255516 0.2741657927993332 0.3170794009303326 0.3715011696378156 0.5379796187249603 0.5433438197413353 0.5319969885187277 0.5664676937968863 0.5940415691968487 0.6298163534188378 0.5979000295770481 0.6603344895270361 0.6517302573203193 0.6569465730956414 0.9380898604501089 1.0 0.9081901535317684 0.6687639482670538 0.5742249468957542 0.4462691032911188)
New LoadShape.COM2_6 npts=24 interval=1
~ mult=(0.23368174061433442 0.23048208191126277 0.22354948805460748 0.18574018771331055 0.23933447098976104 0.23869453924914671 0.24056100682593853 0.4810686860068259 0.6882999146757678 0.6889931740614335 0.7317619453924914 0.6814206484641638 0.7512265358361774 0.6775810580204777 0.7241360921501706 0.9502453071672353 1.0 0.8167662116040955 0.2921821672354949 0.23490827645051188 0.2134705631399317 0.19832551194539247 0.21032423208191123 0.17440095936433445)
New LoadShape.COM2_7 npts=24 interval=1
~ mult=(0.27240563876005935 0.2803614965811809 0.2882256970541328 0.31909589191765503 0.3022859342633499 0.3337977305640593 0.599934006709318 1.0 0.9258125423915234 0.9600740591373209 0.9267474473428534 0.8819636670271854 0.8064563436050668 0.8657953108100676 0.813330644717787 0.807097945042254 0.8017634873787831 0.8485820608238162 0.9126322157247345 0.8304705688255026 0.6910230793202692 0.30921522978497185 0.25858371065608327 0.2736527071731041)
New LoadShape.COM2_8 npts=24 interval=1
~ mult=(0.02954059550503207 0.02213589195390311 0.024638890337383326 0.020936538561818846 0.02341346404547114 0.02463889033738332 0.02586431662929551 0.07389059811232206 0.7044636804505396 0.689628200448454 0.4051728633258591 0.4458205141575846 0.536945299056161 0.47906346143818124 0.4950722219325233 0.514809407102258 0.7549147416175628 0.7734004275955572 0.7216978672367941 0.9371903843145435 1.0 0.8091203003598061 0.5652343953694531 0.05787857347343172)
New LoadShape.COM2_9 npts=24 interval=1
~ mult=(0.4130212330519314 0.22205167562036326 0.32088343139762937 0.3381086381853841 0.20776839771467553 0.37434979108041266 0.3016969386884966 0.36330689861004517 0.6743412637503198 0.8855632301526392 0.9520764048776327 0.9493476592478893 0.9743327364202268 1.0 0.9963332480600323 0.9490065660441717 0.9027884369403939 0.9551036070606291 0.9498592990534664 0.9370683039140444 0.782979449134476 0.7762428583610472 0.6045450669395411 0.29991002212842155)
New LoadShape.COM3_1 npts=24 interval=1
~ mult=(0.9052908506284713 0.9199429991230634 0.9155217772581119 0.9121601870798012 0.90463314820228 0.9136948260742473 0.8818693364513301 0.8988965214849459 0.9228661210172465 0.9415741011400175 0.9549839228295819 0.9682841274481147 0.9593320666471792 1.0 0.9973326512715581 0.9822054954691611 0.9766150248465361 0.9668956445483778 0.9900613855597777 0.9723399590762934 0.9837035954399299 0.9822054954691611 0.9661648640748319 0.9563410355524701)
New LoadShape.COM3_10 npts=24 interval=1
~ mult=(0.27886975218817195 0.2803031948396064 0.2924874573768 0.2884911930152249 0.2950719979149925 0.3295832156896814 0.46804074452142563 0.6517603110136178 0.8418869317811613 0.8569815172773277 0.8412136481115479 0.951849358208631 0.929652715939448 0.8774406533023478 0.9788675803053667 1.0 0.9362335208392155 0.6702647525139543 0.5103707403948483 0.37762526334079016 0.3429185761136329 0.32476163586212886 0.32011380665899264 0.32181039326281957)
New LoadShape.COM3_11 npts=24 interval=1