New load.pip538316-1 phases=1 bus=5009073024.3.1.4 model=2 kv=0.22 kw=0.03611662671232877 pf=0.92 conn=delta status=variable vmaxpu=1.5 vminpu=0.92 daily=IP
New load.pip538316-2 phases=1 bus=5009073024.3.1.4 model=3 kv=0.22 kw=0.03611662671232877 pf=0.92 conn=delta status=variable vmaxpu=1.5 vminpu=0.92 daily=IP

New load.pip547987-1 phases=1 bus=5009073018.1.2.4 model=2 kv=0.22 kw=0.03611662671232877 pf=0.92 conn=delta status=variable vmaxpu=1.5 vminpu=0.92 daily=IP
New load.pip547987-2 phases=1 bus=5009073018.1.2.4 model=3 kv=0.22 kw=0.03611662671232877 pf=0.92 conn=delta status=variable vmaxpu=1.5 vminpu=0.92 daily=IP

New load.pip548012-1 phases=1 bus=5009073011.3.1.4 model=2 kv=0.22 kw=0.03611662671232877 pf=0.92 conn=delta status=variable vmaxpu=1.5 vminpu=0.92 daily=IP
New load.pip548012-2 phases=1 bus=5009073011.3.1.4 model=3 kv=0.22 kw=0.03611662671232877 pf=0.92 conn=delta status=variable vmaxpu=1.5 vminpu=0.92 daily=IP

New load.pip551277-1 phases=1 bus=5009073064.2.3.4 model=2 kv=0.22 kw=0.03611662671232877 pf=0.92 conn=delta status=variable vmaxpu=1.5 vminpu=0.92 daily=IP
New load.pip551277-2 phases=1 bus=5009073064.2.3.4 model=3 kv=0.22 kw=0.03611662671232877 pf=0.92 conn=delta status=variable vmaxpu=1.5 vminpu=0.92 daily=IP

New load.pip551670-1 phases=1 bus=5009072972.3.1.4 model=2 kv=0.22 kw=0.03611662671232877 pf=0.92 conn=delta status=variable vmaxpu=1.5 vminpu=0.92 daily=IP
New load.pip551670-2 phases=1 bus=5009072972.3.1.4 model=3 kv=0.22 kw=0.03611662671232877 pf=0.92 conn=delta status=variable vmaxpu=1.5 vminpu=0.92 daily=IP

New load.pip562505-1 phases=1 bus=5009073110.2.3.4 model=2 kv=0.22 kw=0.03611662671232877 pf=0.92 conn=delta status=variable vmaxpu=1.5 vminpu=0.92 daily=IP
New load.pip562505-2 phases=1 bus=5009073110.2.3.4 model=3 kv=0.22 kw=0.03611662671232877 pf=0.92 conn=delta status=variable vmaxpu=1.5 vminpu=0.92 daily=IP

New load.pip562784-1 phases=1 bus=5009073014.2.3.4 model=2 kv=0.22 kw=0.03611662671232877 pf=0.92 conn=delta status=variable vmaxpu=1.5 vminpu=0.92 daily=IP
New load.pip562784-2 phases=1 bus=5009073014.2.3.4 model=3 kv=0.22 kw=0.03611662671232877 pf=0.92 conn=delta status=variable vmaxpu=1.5 vminpu=0.92 daily=IP

New load.pip567624-1 phases=1 bus=5009073139.3.1.4 model=2 kv=0.22 kw=0.03611662671232877 pf=0.92 conn=delta status=variable vmaxpu=1.5 vminpu=0.92 daily=IP
New load.pip567624-2 phases=1 bus=5009073139.3.1.4 model=3 kv=0.22 kw=0.03611662671232877 pf=0.92 conn=delta status=variable vmaxpu=1.5 vminpu=0.92 daily=IP

New load.pip568476-1 phases=1 bus=5009073124.1.2.4 model=2 kv=0.22 kw=0.03611662671232877 pf=0.92 conn=delta status=variable vmaxpu=1.5 vminpu=0.92 daily=IP
New load.pip568476-2 phases=1 bus=5009073124.1.2.4 model=3 kv=0.22 kw=0.03611662671232877 pf=0.92 conn=delta status=variable vmaxpu=1.5 vminpu=0.92 daily=IP

New load.pip573581-1 phases=1 bus=5009073113.1.2.4 model=2 kv=0.22 kw=0.03611662671232877 pf=0.92 conn=delta status=variable vmaxpu=1.5 vminpu=0.92 daily=IP
New load.pip573581-2 phases=1 bus=5009073113.1.2.4 model=3 kv=0.22 kw=0.03611662671232877 pf=0.92 conn=delta status=variable vmaxpu=1.5 vminpu=0.92 daily=IP

New load.pip574976-1 phases=1 bus=5008854046.1.2.4 model=2 kv=0.22 kw=0.03076687785388128 pf=0.92 conn=delta status=variable vmaxpu=1.5 vminpu=0.92 daily=IP
New load.pip574976-2 phases=1 bus=5008854046.1.2.4 model=3 kv=0.22 kw=0.03076687785388128 pf=0.92 conn=delta status=variable vmaxpu=1.5 vminpu=0.92 daily=IP

New load.pip576233-1 phases=1 bus=5009073117.3.1.4 model=2 kv=0.22 kw=0.03611662671232877 pf=0.92 conn=delta status=variable vmaxpu=1.5 vminpu=0.92 daily=IP
New load.pip576233-2 phases=1 bus=5009073117.3.1.4 model=3 kv=0.22 kw=0.03611662671232877 pf=0.92 conn=delta status=variable vmaxpu=1.5 vminpu=0.92 daily=IP

New load.pip576489-1 phases=1 bus=5009073095.1.2.4 model=2 kv=0.22 kw=0.03611662671232877 pf=0.92 conn=delta status=variable vmaxpu=1.5 vminpu=0.92 daily=IP
New load.pip576489-2 phases=1 bus=5009073095.1.2.4 model=3 kv=0.22 kw=0.03611662671232877 pf=0.92 conn=delta status=variable vmaxpu=1.5 vminpu=0.92 daily=IP

New load.pip576665-1 phases=1 bus=5009072989.2.3.4 model=2 kv=0.22 kw=0.03611662671232877 pf=0.92 conn=delta status=variable vmaxpu=1.5 vminpu=0.92 daily=IP
New load.pip576665-2 phases=1 bus=5009072989.2.3.4 model=3 kv=0.22 kw=0.03611662671232877 pf=0.92 conn=delta status=variable vmaxpu=1.5 vminpu=0.92 daily=IP

New load.pip577894-1 phases=1 bus=5009073074.1.2.4 model=2 kv=0.22 kw=0.03611662671232877 pf=0.92 conn=delta status=variable vmaxpu=1.5 vminpu=0.92 daily=IP
New load.pip577894-2 phases=1 bus=5009073074.1.2.4 model=3 kv=0.22 kw=0.03611662671232877 pf=0.92 conn=delta status=variable vmaxpu=1.5 vminpu=0.92 daily=IP

New load.pip578363-1 phases=1 bus=5009073069.2.3.4 model=2 kv=0.22 kw=0.03611662671232877 pf=0.92 conn=delta status=variable vmaxpu=1.5 vminpu=0.92 daily=IP
New load.pip578363-2 phases=1 bus=5009073069.2.3.4 model=3 kv=0.22 kw=0.03611662671232877 pf=0.92 conn=delta status=variable vmaxpu=1.5 vminpu=0.92 daily=IP

New load.pip582795-1 phases=1 bus=5009073060.3.1.4 model=2 kv=0.22 kw=0.03611662671232877 pf=0.92 conn=delta status=variable vmaxpu=1.5 vminpu=0.92 daily=IP
New load.pip582795-2 phases=1 bus=5009073060.3.1.4 model=3 kv=0.22 kw=0.03611662671232877 pf=0.92 conn=delta status=variable vmaxpu=1.5 vminpu=0.92 daily=IP

New load.pip586934-1 phases=1 bus=5009072987.1.2.4 model=2 kv=0.22 kw=0.00882841324200913 pf=0.92 conn=delta status=variable vmaxpu=1.5 vminpu=0.92 daily=IP
New load.pip586934-2 phases=1 bus=5009072987.1.2.4 model=3 kv=0.22 kw=0.00882841324200913 pf=0.92 conn=delta status=variable vmaxpu=1.5 vminpu=0.92 daily=IP

New load.pip586935-1 phases=1 bus=5009072993.1.2.4 model=2 kv=0.22 kw=0.00882841324200913 pf=0.92 conn=delta status=variable vmaxpu=1.5 vminpu=0.92 daily=IP
New load.pip586935-2 phases=1 bus=5009072993.1.2.4 model=3 kv=0.22 kw=0.00882841324200913 pf=0.92 conn=delta status=variable vmaxpu=1.5 vminpu=0.92 daily=IP

New load.pip589474-1 phases=1 bus=5009073084.2.3.4 model=2 kv=0.22 kw=0.03611662671232877 pf=0.92 conn=delta status=variable vmaxpu=1.5 vminpu=0.92 daily=IP
New load.pip589474-2 phases=1 bus=5009073084.2.3.4 model=3 kv=0.22 kw=0.03611662671232877 pf=0.92 conn=delta status=variable vmaxpu=1.5 vminpu=0.92 daily=IP

New load.pip591342-1 phases=1 bus=5008964355.3.1.4 model=2 kv=0.22 kw=0.013378190639269408 pf=0.92 conn=delta status=variable vmaxpu=1.5 vminpu=0.92 daily=IP
New load.pip591342-2 phases=1 bus=5008964355.3.1.4 model=3 kv=0.22 kw=0.013378190639269408 pf=0.92 conn=delta status=variable vmaxpu=1.5 vminpu=0.92 daily=IP

New load.pip605579-1 phases=1 bus=5009073030.2.3.4 model=2 kv=0.22 kw=0.03611662671232877 pf=0.92 conn=delta status=variable vmaxpu=1.5 vminpu=0.92 daily=IP
New load.pip605579-2 phases=1 bus=5009073030.2.3.4 model=3 kv=0.22 kw=0.03611662671232877 pf=0.92 conn=delta status=variable vmaxpu=1.5 vminpu=0.92 daily=IP

New load.pip614225-1 phases=1 bus=5009072943.1.2.4 model=2 kv=0.22 kw=0.03611662671232877 pf=0.92 conn=delta status=variable vmaxpu=1.5 vminpu=0.92 daily=IP
New load.pip614225-2 phases=1 bus=5009072943.1.2.4 model=3 kv=0.22 kw=0.03611662671232877 pf=0.92 conn=delta status=variable vmaxpu=1.5 vminpu=0.92 daily=IP

New load.pip619777-1 phases=1 bus=5009073122.2.3.4 model=2 kv=0.22 kw=0.03611662671232877 pf=0.92 conn=delta status=variable vmaxpu=1.5 vminpu=0.92 daily=IP
New load.pip619777-2 phases=1 bus=5009073122.2.3.4 model=3 kv=0.22 kw=0.03611662671232877 pf=0.92 conn=delta status=variable vmaxpu=1.5 vminpu=0.92 daily=IP

New load.pip631102-1 phases=1 bus=5009073067.1.2.4 model=2 kv=0.22 kw=0.03611662671232877 pf=0.92 conn=delta status=variable vmaxpu=1.5 vminpu=0.92 daily=IP
New load.pip631102-2 phases=1 bus=5009073067.1.2.4 model=3 kv=0.22 kw=0.03611662671232877 pf=0.92 conn=delta status=variable vmaxpu=1.5 vminpu=0.92 daily=IP

New load.pip633221-1 phases=1 bus=5008964357.3.1.4 model=2 kv=0.22 kw=0.013378190639269408 pf=0.92 conn=delta status=variable vmaxpu=1.5 vminpu=0.92 daily=IP
New load.pip633221-2 phases=1 bus=5008964357.3.1.4 model=3 kv=0.22 kw=0.013378190639269408 pf=0.92 conn=delta status=variable vmaxpu=1.5 vminpu=0.92 daily=IP

New load.pip634934-1 phases=1 bus=5008964350.1.2.4 model=2 kv=0.22 kw=0.013378190639269408 pf=0.92 conn=delta status=variable vmaxpu=1.5 vminpu=0.92 daily=IP
New load.pip634934-2 phases=1 bus=5008964350.1.2.4 model=3 kv=0.22 kw=0.013378190639269408 pf=0.92 conn=delta status=variable vmaxpu=1.5 vminpu=0.92 daily=IP

New load.pip638755-1 phases=1 bus=5008968543.1.2.4 model=2 kv=0.22 kw=0.013378190639269408 pf=0.92 conn=delta status=variable vmaxpu=1.5 vminpu=0.92 daily=IP
New load.pip638755-2 phases=1 bus=5008968543.1.2.4 model=3 kv=0.22 kw=0.013378190639269408 pf=0.92 conn=delta status=variable vmaxpu=1.5 vminpu=0.92 daily=IP

New load.pip638762-1 phases=1 bus=5008854049.2.3.4 model=2 kv=0.22 kw=0.03076687785388128 pf=0.92 conn=delta status=variable vmaxpu=1.5 vminpu=0.92 daily=IP
New load.pip638762-2 phases=1 bus=5008854049.2.3.4 model=3 kv=0.22 kw=0.03076687785388128 pf=0.92 conn=delta status=variable vmaxpu=1.5 vminpu=0.92 daily=IP

New load.pip643947-1 phases=1 bus=5008854044.2.3.4 model=2 kv=0.22 kw=0.03076687785388128 pf=0.92 conn=delta status=variable vmaxpu=1.5 vminpu=0.92 daily=IP
New load.pip643947-2 phases=1 bus=5008854044.2.3.4 model=3 kv=0.22 kw=0.03076687785388128 pf=0.92 conn=delta status=variable vmaxpu=1.5 vminpu=0.92 daily=IP

New load.pip646164-1 phases=1 bus=5008964353.1.2.4 model=2 kv=0.22 kw=0.013378190639269408 pf=0.92 conn=delta status=variable vmaxpu=1.5 vminpu=0.92 daily=IP
New load.pip646164-2 phases=1 bus=5008964353.1.2.4 model=3 kv=0.22 kw=0.013378190639269408 pf=0.92 conn=delta status=variable vmaxpu=1.5 vminpu=0.92 daily=IP

New load.pip646165-1 phases=1 bus=5008854042.1.2.4 model=2 kv=0.22 kw=0.03076687785388128 pf=0.92 conn=delta status=variable vmaxpu=1.5 vminpu=0.92 daily=IP
New load.pip646165-2 phases=1 bus=5008854042.1.2.4 model=3 kv=0.22 kw=0.03076687785388128 pf=0.92 conn=delta status=variable vmaxpu=1.5 vminpu=0.92 daily=IP

New load.pip648803-1 phases=1 bus=5001066643.2.3.4 model=2 kv=0.22 kw=0.00882841324200913 pf=0.92 conn=delta status=variable vmaxpu=1.5 vminpu=0.92 daily=IP
New load.pip648803-2 phases=1 bus=5001066643.2.3.4 model=3 kv=0.22 kw=0.00882841324200913 pf=0.92 conn=delta status=variable vmaxpu=1.5 vminpu=0.92 daily=IP

New load.pip653636-1 phases=1 bus=5009073057.1.2.4 model=2 kv=0.22 kw=0.03611662671232877 pf=0.92 conn=delta status=variable vmaxpu=1.5 vminpu=0.92 daily=IP
New load.pip653636-2 phases=1 bus=5009073057.1.2.4 model=3 kv=0.22 kw=0.03611662671232877 pf=0.92 conn=delta status=variable vmaxpu=1.5 vminpu=0.92 daily=IP

New load.pip660928-1 phases=1 bus=5008964373.2.3.4 model=2 kv=0.22 kw=0.013378190639269408 pf=0.92 conn=delta status=variable vmaxpu=1.5 vminpu=0.92 daily=IP
New load.pip660928-2 phases=1 bus=5008964373.2.3.4 model=3 kv=0.22 kw=0.013378190639269408 pf=0.92 conn=delta status=variable vmaxpu=1.5 vminpu=0.92 daily=IP

New load.pip668163-1 phases=1 bus=5001208330.1.2.4 model=2 kv=0.22 kw=0.01096634703196347 pf=0.92 conn=delta status=variable vmaxpu=1.5 vminpu=0.92 daily=IP
New load.pip668163-2 phases=1 bus=5001208330.1.2.4 model=3 kv=0.22 kw=0.01096634703196347 pf=0.92 conn=delta status=variable vmaxpu=1.5 vminpu=0.92 daily=IP

New load.pip670779-1 phases=1 bus=5008966062.2.3.4 model=2 kv=0.22 kw=0.008027186073059361 pf=0.92 conn=delta status=variable vmaxpu=1.5 vminpu=0.92 daily=IP
New load.pip670779-2 phases=1 bus=5008966062.2.3.4 model=3 kv=0.22 kw=0.008027186073059361 pf=0.92 conn=delta status=variable vmaxpu=1.5 vminpu=0.92 daily=IP

New load.pip672596-1 phases=1 bus=5008964375.1.2.4 model=2 kv=0.22 kw=0.013378190639269408 pf=0.92 conn=delta status=variable vmaxpu=1.5 vminpu=0.92 daily=IP
New load.pip672596-2 phases=1 bus=5008964375.1.2.4 model=3 kv=0.22 kw=0.013378190639269408 pf=0.92 conn=delta status=variable vmaxpu=1.5 vminpu=0.92 daily=IP

New load.pip673494-1 phases=1 bus=5008842369.1.2.4 model=2 kv=0.22 kw=0.02407829908675799 pf=0.92 conn=delta status=variable vmaxpu=1.5 vminpu=0.92 daily=IP
New load.pip673494-2 phases=1 bus=5008842369.1.2.4 model=3 kv=0.22 kw=0.02407829908675799 pf=0.92 conn=delta status=variable vmaxpu=1.5 vminpu=0.92 daily=IP

New load.pip673593-1 phases=1 bus=5008842387.2.3.4 model=2 kv=0.22 kw=0.02407829908675799 pf=0.92 conn=delta status=variable vmaxpu=1.5 vminpu=0.92 daily=IP
New load.pip673593-2 phases=1 bus=5008842387.2.3.4 model=3 kv=0.22 kw=0.02407829908675799 pf=0.92 conn=delta status=variable vmaxpu=1.5 vminpu=0.92 daily=IP

New load.pip676122-1 phases=1 bus=5009072460.3.1.4 model=2 kv=0.22 kw=0.045481244292237454 pf=0.92 conn=delta status=variable vmaxpu=1.5 vminpu=0.92 daily=IP
New load.pip676122-2 phases=1 bus=5009072460.3.1.4 model=3 kv=0.22 kw=0.045481244292237454 pf=0.92 conn=delta status=variable vmaxpu=1.5 vminpu=0.92 daily=IP

New load.pip677753-1 phases=1 bus=5009073147.2.3.4 model=2 kv=0.22 kw=0.03611662671232877 pf=0.92 conn=delta status=variable vmaxpu=1.5 vminpu=0.92 daily=IP
New load.pip677753-2 phases=1 bus=5009073147.2.3.4 model=3 kv=0.22 kw=0.03611662671232877 pf=0.92 conn=delta status=variable vmaxpu=1.5 vminpu=0.92 daily=IP

New load.pip678840-1 phases=1 bus=5009073106.3.1.4 model=2 kv=0.22 kw=0.03611662671232877 pf=0.92 conn=delta status=variable vmaxpu=1.5 vminpu=0.92 daily=IP
New load.pip678840-2 phases=1 bus=5009073106.3.1.4 model=3 kv=0.22 kw=0.03611662671232877 pf=0.92 conn=delta status=variable vmaxpu=1.5 vminpu=0.92 daily=IP

New load.pip679999-1 phases=1 bus=5001066615.3.1.4 model=2 kv=0.22 kw=0.00882841324200913 pf=0.92 conn=delta status=variable vmaxpu=1.5 vminpu=0.92 daily=IP
New load.pip679999-2 phases=1 bus=5001066615.3.1.4 model=3 kv=0.22 kw=0.00882841324200913 pf=0.92 conn=delta status=variable vmaxpu=1.5 vminpu=0.92 daily=IP

New load.pip682520-1 phases=1 bus=5009073071.3.1.4 model=2 kv=0.22 kw=0.03611662671232877 pf=0.92 conn=delta status=variable vmaxpu=1.5 vminpu=0.92 daily=IP
New load.pip682520-2 phases=1 bus=5009073071.3.1.4 model=3 kv=0.22 kw=0.03611662671232877 pf=0.92 conn=delta status=variable vmaxpu=1.5 vminpu=0.92 daily=IP

New load.pip685824-1 phases=1 bus=5001066629.2.3.4 model=2 kv=0.22 kw=0.00882841324200913 pf=0.92 conn=delta status=variable vmaxpu=1.5 vminpu=0.92 daily=IP
New load.pip685824-2 phases=1 bus=5001066629.2.3.4 model=3 kv=0.22 kw=0.00882841324200913 pf=0.92 conn=delta status=variable vmaxpu=1.5 vminpu=0.92 daily=IP

New load.pip686858-1 phases=1 bus=5001073272.1.2.4 model=2 kv=0.22 kw=0.01284324200913242 pf=0.92 conn=delta status=variable vmaxpu=1.5 vminpu=0.92 daily=IP
New load.pip686858-2 phases=1 bus=5001073272.1.2.4 model=3 kv=0.22 kw=0.01284324200913242 pf=0.92 conn=delta status=variable vmaxpu=1.5 vminpu=0.92 daily=IP

New load.pip688368-1 phases=1 bus=5001073244.3.1.4 model=2 kv=0.22 kw=0.01284324200913242 pf=0.92 conn=delta status=variable vmaxpu=1.5 vminpu=0.92 daily=IP
New load.pip688368-2 phases=1 bus=5001073244.3.1.4 model=3 kv=0.22 kw=0.01284324200913242 pf=0.92 conn=delta status=variable vmaxpu=1.5 vminpu=0.92 daily=IP

New load.pip688498-1 phases=1 bus=5001066678.3.1.4 model=2 kv=0.22 kw=0.00882841324200913 pf=0.92 conn=delta status=variable vmaxpu=1.5 vminpu=0.92 daily=IP
New load.pip688498-2 phases=1 bus=5001066678.3.1.4 model=3 kv=0.22 kw=0.00882841324200913 pf=0.92 conn=delta status=variable vmaxpu=1.5 vminpu=0.92 daily=IP

New load.pip693713-1 phases=1 bus=5001065663.1.2.4 model=2 kv=0.22 kw=0.00882841324200913 pf=0.92 conn=delta status=variable vmaxpu=1.5 vminpu=0.92 daily=IP
New load.pip693713-2 phases=1 bus=5001065663.1.2.4 model=3 kv=0.22 kw=0.00882841324200913 pf=0.92 conn=delta status=variable vmaxpu=1.5 vminpu=0.92 daily=IP

New load.pip698373-1 phases=1 bus=5008964372.2.3.4 model=2 kv=0.22 kw=0.013378190639269408 pf=0.92 conn=delta status=variable vmaxpu=1.5 vminpu=0.92 daily=IP
New load.pip698373-2 phases=1 bus=5008964372.2.3.4 model=3 kv=0.22 kw=0.013378190639269408 pf=0.92 conn=delta status=variable vmaxpu=1.5 vminpu=0.92 daily=IP

New load.pip698562-1 phases=1 bus=5009073098.3.1.4 model=2 kv=0.22 kw=0.03611662671232877 pf=0.92 conn=delta status=variable vmaxpu=1.5 vminpu=0.92 daily=IP
New load.pip698562-2 phases=1 bus=5009073098.3.1.4 model=3 kv=0.22 kw=0.03611662671232877 pf=0.92 conn=delta status=variable vmaxpu=1.5 vminpu=0.92 daily=IP

New load.pip701670-1 phases=1 bus=5008854045.1.2.4 model=2 kv=0.22 kw=0.03076687785388128 pf=0.92 conn=delta status=variable vmaxpu=1.5 vminpu=0.92 daily=IP
New load.pip701670-2 phases=1 bus=5008854045.1.2.4 model=3 kv=0.22 kw=0.03076687785388128 pf=0.92 conn=delta status=variable vmaxpu=1.5 vminpu=0.92 daily=IP

New load.pip704905-1 phases=1 bus=5001065740.1.2.4 model=2 kv=0.22 kw=0.01284324200913242 pf=0.92 conn=delta status=variable vmaxpu=1.5 vminpu=0.92 daily=IP
New load.pip704905-2 phases=1 bus=5001065740.1.2.4 model=3 kv=0.22 kw=0.01284324200913242 pf=0.92 conn=delta status=variable vmaxpu=1.5 vminpu=0.92 daily=IP

New load.pip706832-1 phases=1 bus=5001065677.1.2.4 model=2 kv=0.22 kw=0.00882841324200913 pf=0.92 conn=delta status=variable vmaxpu=1.5 vminpu=0.92 daily=IP
New load.pip706832-2 phases=1 bus=5001065677.1.2.4 model=3 kv=0.22 kw=0.00882841324200913 pf=0.92 conn=delta status=variable vmaxpu=1.5 vminpu=0.92 daily=IP

New load.pip711348-1 phases=1 bus=5001068778.1.2.4 model=2 kv=0.22 kw=0.00882841324200913 pf=0.92 conn=delta status=variable vmaxpu=1.5 vminpu=0.92 daily=IP
New load.pip711348-2 phases=1 bus=5001068778.1.2.4 model=3 kv=0.22 kw=0.00882841324200913 pf=0.92 conn=delta status=variable vmaxpu=1.5 vminpu=0.92 daily=IP

New load.pip712963-1 phases=1 bus=5008964364.3.1.4 model=2 kv=0.22 kw=0.013378190639269408 pf=0.92 conn=delta status=variable vmaxpu=1.5 vminpu=0.92 daily=IP
New load.pip712963-2 phases=1 bus=5008964364.3.1.4 model=3 kv=0.22 kw=0.013378190639269408 pf=0.92 conn=delta status=variable vmaxpu=1.5 vminpu=0.92 daily=IP

New load.pip720509-1 phases=1 bus=5009130809.2.3.4 model=2 kv=0.22 kw=0.03611662671232877 pf=0.92 conn=delta status=variable vmaxpu=1.5 vminpu=0.92 daily=IP
New load.pip720509-2 phases=1 bus=5009130809.2.3.4 model=3 kv=0.22 kw=0.03611662671232877 pf=0.92 conn=delta status=variable vmaxpu=1.5 vminpu=0.92 daily=IP

New load.pip720961-1 phases=1 bus=5008964103.2.3.4 model=2 kv=0.22 kw=0.013378190639269408 pf=0.92 conn=delta status=variable vmaxpu=1.5 vminpu=0.92 daily=IP
New load.pip720961-2 phases=1 bus=5008964103.2.3.4 model=3 kv=0.22 kw=0.013378190639269408 pf=0.92 conn=delta status=variable vmaxpu=1.5 vminpu=0.92 daily=IP

New load.pip720984-1 phases=1 bus=5009130813.3.1.4 model=2 kv=0.22 kw=0.03611662671232877 pf=0.92 conn=delta status=variable vmaxpu=1.5 vminpu=0.92 daily=IP
New load.pip720984-2 phases=1 bus=5009130813.3.1.4 model=3 kv=0.22 kw=0.03611662671232877 pf=0.92 conn=delta status=variable vmaxpu=1.5 vminpu=0.92 daily=IP

New load.pip722323-1 phases=1 bus=5008964348.2.3.4 model=2 kv=0.22 kw=0.013378190639269408 pf=0.92 conn=delta status=variable vmaxpu=1.5 vminpu=0.92 daily=IP
New load.pip722323-2 phases=1 bus=5008964348.2.3.4 model=3 kv=0.22 kw=0.013378190639269408 pf=0.92 conn=delta status=variable vmaxpu=1.5 vminpu=0.92 daily=IP

New load.pip726307-1 phases=1 bus=5008842380.2.3.4 model=2 kv=0.22 kw=0.02407829908675799 pf=0.92 conn=delta status=variable vmaxpu=1.5 vminpu=0.92 daily=IP
New load.pip726307-2 phases=1 bus=5008842380.2.3.4 model=3 kv=0.22 kw=0.02407829908675799 pf=0.92 conn=delta status=variable vmaxpu=1.5 vminpu=0.92 daily=IP

New load.pip730401-1 phases=1 bus=5001208302.1.2.4 model=2 kv=0.22 kw=0.01096634703196347 pf=0.92 conn=delta status=variable vmaxpu=1.5 vminpu=0.92 daily=IP
New load.pip730401-2 phases=1 bus=5001208302.1.2.4 model=3 kv=0.22 kw=0.01096634703196347 pf=0.92 conn=delta status=variable vmaxpu=1.5 vminpu=0.92 daily=IP

New load.pip739035-1 phases=1 bus=5009072457.3.1.4 model=2 kv=0.22 kw=0.045481244292237454 pf=0.92 conn=delta status=variable vmaxpu=1.5 vminpu=0.92 daily=IP
New load.pip739035-2 phases=1 bus=5009072457.3.1.4 model=3 kv=0.22 kw=0.045481244292237454 pf=0.92 conn=delta status=variable vmaxpu=1.5 vminpu=0.92 daily=IP

New load.pip739415-1 phases=1 bus=5009129020.3.1.4 model=2 kv=0.22 kw=0.013378190639269408 pf=0.92 conn=delta status=variable vmaxpu=1.5 vminpu=0.92 daily=IP
New load.pip739415-2 phases=1 bus=5009129020.3.1.4 model=3 kv=0.22 kw=0.013378190639269408 pf=0.92 conn=delta status=variable vmaxpu=1.5 vminpu=0.92 daily=IP

New load.pip739774-1 phases=1 bus=5008965453.1.2.4 model=2 kv=0.22 kw=0.013378190639269408 pf=0.92 conn=delta status=variable vmaxpu=1.5 vminpu=0.92 daily=IP
New load.pip739774-2 phases=1 bus=5008965453.1.2.4 model=3 kv=0.22 kw=0.013378190639269408 pf=0.92 conn=delta status=variable vmaxpu=1.5 vminpu=0.92 daily=IP

New load.pip739969-1 phases=1 bus=5001816490.1.2.4 model=2 kv=0.22 kw=0.00882841324200913 pf=0.92 conn=delta status=variable vmaxpu=1.5 vminpu=0.92 daily=IP
New load.pip739969-2 phases=1 bus=5001816490.1.2.4 model=3 kv=0.22 kw=0.00882841324200913 pf=0.92 conn=delta status=variable vmaxpu=1.5 vminpu=0.92 daily=IP

New load.pip740352-1 phases=1 bus=5009070380.1.2.4 model=2 kv=0.22 kw=0.03611662671232877 pf=0.92 conn=delta status=variable vmaxpu=1.5 vminpu=0.92 daily=IP
New load.pip740352-2 phases=1 bus=5009070380.1.2.4 model=3 kv=0.22 kw=0.03611662671232877 pf=0.92 conn=delta status=variable vmaxpu=1.5 vminpu=0.92 daily=IP

New load.pip742460-1 phases=1 bus=5008843507.2.3.4 model=2 kv=0.22 kw=0.03076687785388128 pf=0.92 conn=delta status=variable vmaxpu=1.5 vminpu=0.92 daily=IP
New load.pip742460-2 phases=1 bus=5008843507.2.3.4 model=3 kv=0.22 kw=0.03076687785388128 pf=0.92 conn=delta status=variable vmaxpu=1.5 vminpu=0.92 daily=IP

New load.pip742786-1 phases=1 bus=5008968545.2.3.4 model=2 kv=0.22 kw=0.013378190639269408 pf=0.92 conn=delta status=variable vmaxpu=1.5 vminpu=0.92 daily=IP
New load.pip742786-2 phases=1 bus=5008968545.2.3.4 model=3 kv=0.22 kw=0.013378190639269408 pf=0.92 conn=delta status=variable vmaxpu=1.5 vminpu=0.92 daily=IP

New load.pip743487-1 phases=1 bus=5009069420.2.3.4 model=2 kv=0.22 kw=0.013378190639269408 pf=0.92 conn=delta status=variable vmaxpu=1.5 vminpu=0.92 daily=IP
New load.pip743487-2 phases=1 bus=5009069420.2.3.4 model=3 kv=0.22 kw=0.013378190639269408 pf=0.92 conn=delta status=variable vmaxpu=1.5 vminpu=0.92 daily=IP

New load.pip744667-1 phases=1 bus=5009128997.1.2.4 model=2 kv=0.22 kw=0.013378190639269408 pf=0.92 conn=delta status=variable vmaxpu=1.5 vminpu=0.92 daily=IP
New load.pip744667-2 phases=1 bus=5009128997.1.2.4 model=3 kv=0.22 kw=0.013378190639269408 pf=0.92 conn=delta status=variable vmaxpu=1.5 vminpu=0.92 daily=IP

New load.pip745620-1 phases=1 bus=5008964366.3.1.4 model=2 kv=0.22 kw=0.013378190639269408 pf=0.92 conn=delta status=variable vmaxpu=1.5 vminpu=0.92 daily=IP
New load.pip745620-2 phases=1 bus=5008964366.3.1.4 model=3 kv=0.22 kw=0.013378190639269408 pf=0.92 conn=delta status=variable vmaxpu=1.5 vminpu=0.92 daily=IP

New load.pip745826-1 phases=1 bus=5009130816.1.2.4 model=2 kv=0.22 kw=0.03611662671232877 pf=0.92 conn=delta status=variable vmaxpu=1.5 vminpu=0.92 daily=IP
New load.pip745826-2 phases=1 bus=5009130816.1.2.4 model=3 kv=0.22 kw=0.03611662671232877 pf=0.92 conn=delta status=variable vmaxpu=1.5 vminpu=0.92 daily=IP

New load.pip746965-1 phases=1 bus=5001066671.3.1.4 model=2 kv=0.22 kw=0.01123835616438356 pf=0.92 conn=delta status=variable vmaxpu=1.5 vminpu=0.92 daily=IP
New load.pip746965-2 phases=1 bus=5001066671.3.1.4 model=3 kv=0.22 kw=0.01123835616438356 pf=0.92 conn=delta status=variable vmaxpu=1.5 vminpu=0.92 daily=IP

New load.pip747308-1 phases=1 bus=5008842835.1.2.4 model=2 kv=0.22 kw=0.03076687785388128 pf=0.92 conn=delta status=variable vmaxpu=1.5 vminpu=0.92 daily=IP
New load.pip747308-2 phases=1 bus=5008842835.1.2.4 model=3 kv=0.22 kw=0.03076687785388128 pf=0.92 conn=delta status=variable vmaxpu=1.5 vminpu=0.92 daily=IP

New load.pip747538-1 phases=1 bus=5001073258.3.1.4 model=2 kv=0.22 kw=0.01123835616438356 pf=0.92 conn=delta status=variable vmaxpu=1.5 vminpu=0.92 daily=IP
New load.pip747538-2 phases=1 bus=5001073258.3.1.4 model=3 kv=0.22 kw=0.01123835616438356 pf=0.92 conn=delta status=variable vmaxpu=1.5 vminpu=0.92 daily=IP

New load.pip748371-1 phases=1 bus=5008970060.3.1.4 model=2 kv=0.22 kw=0.01070200913242009 pf=0.92 conn=delta status=variable vmaxpu=1.5 vminpu=0.92 daily=IP
New load.pip748371-2 phases=1 bus=5008970060.3.1.4 model=3 kv=0.22 kw=0.01070200913242009 pf=0.92 conn=delta status=variable vmaxpu=1.5 vminpu=0.92 daily=IP

New load.pip748659-1 phases=1 bus=5001703237.3.1.4 model=2 kv=0.22 kw=0.020335479452054796 pf=0.92 conn=delta status=variable vmaxpu=1.5 vminpu=0.92 daily=IP
New load.pip748659-2 phases=1 bus=5001703237.3.1.4 model=3 kv=0.22 kw=0.020335479452054796 pf=0.92 conn=delta status=variable vmaxpu=1.5 vminpu=0.92 daily=IP

New load.pip749556-1 phases=1 bus=5001696286.1.2.4 model=2 kv=0.22 kw=0.02220470319634703 pf=0.92 conn=delta status=variable vmaxpu=1.5 vminpu=0.92 daily=IP
New load.pip749556-2 phases=1 bus=5001696286.1.2.4 model=3 kv=0.22 kw=0.02220470319634703 pf=0.92 conn=delta status=variable vmaxpu=1.5 vminpu=0.92 daily=IP

New load.pip749708-1 phases=1 bus=5008964370.2.3.4 model=2 kv=0.22 kw=0.013378190639269408 pf=0.92 conn=delta status=variable vmaxpu=1.5 vminpu=0.92 daily=IP
New load.pip749708-2 phases=1 bus=5008964370.2.3.4 model=3 kv=0.22 kw=0.013378190639269408 pf=0.92 conn=delta status=variable vmaxpu=1.5 vminpu=0.92 daily=IP

New load.pip749799-1 phases=1 bus=5008842389.1.2.4 model=2 kv=0.22 kw=0.02407829908675799 pf=0.92 conn=delta status=variable vmaxpu=1.5 vminpu=0.92 daily=IP
New load.pip749799-2 phases=1 bus=5008842389.1.2.4 model=3 kv=0.22 kw=0.02407829908675799 pf=0.92 conn=delta status=variable vmaxpu=1.5 vminpu=0.92 daily=IP

New load.pip750366-1 phases=1 bus=5008842932.1.2.4 model=2 kv=0.22 kw=0.037454058219178084 pf=0.92 conn=delta status=variable vmaxpu=1.5 vminpu=0.92 daily=IP
New load.pip750366-2 phases=1 bus=5008842932.1.2.4 model=3 kv=0.22 kw=0.037454058219178084 pf=0.92 conn=delta status=variable vmaxpu=1.5 vminpu=0.92 daily=IP

New load.pip750729-1 phases=1 bus=5009226257.2.3.4 model=2 kv=0.22 kw=0.03611662671232877 pf=0.92 conn=delta status=variable vmaxpu=1.5 vminpu=0.92 daily=IP
New load.pip750729-2 phases=1 bus=5009226257.2.3.4 model=3 kv=0.22 kw=0.03611662671232877 pf=0.92 conn=delta status=variable vmaxpu=1.5 vminpu=0.92 daily=IP

New load.pip751580-1 phases=1 bus=5009070384.3.1.4 model=2 kv=0.22 kw=0.03611662671232877 pf=0.92 conn=delta status=variable vmaxpu=1.5 vminpu=0.92 daily=IP
New load.pip751580-2 phases=1 bus=5009070384.3.1.4 model=3 kv=0.22 kw=0.03611662671232877 pf=0.92 conn=delta status=variable vmaxpu=1.5 vminpu=0.92 daily=IP

New load.pip751764-1 phases=1 bus=5009070375.3.1.4 model=2 kv=0.22 kw=0.03611662671232877 pf=0.92 conn=delta status=variable vmaxpu=1.5 vminpu=0.92 daily=IP
New load.pip751764-2 phases=1 bus=5009070375.3.1.4 model=3 kv=0.22 kw=0.03611662671232877 pf=0.92 conn=delta status=variable vmaxpu=1.5 vminpu=0.92 daily=IP

New load.pip751922-1 phases=1 bus=5008842921.2.3.4 model=2 kv=0.22 kw=0.037454058219178084 pf=0.92 conn=delta status=variable vmaxpu=1.5 vminpu=0.92 daily=IP
New load.pip751922-2 phases=1 bus=5008842921.2.3.4 model=3 kv=0.22 kw=0.037454058219178084 pf=0.92 conn=delta status=variable vmaxpu=1.5 vminpu=0.92 daily=IP

New load.pip751923-1 phases=1 bus=5009129022.3.1.4 model=2 kv=0.22 kw=0.013378190639269408 pf=0.92 conn=delta status=variable vmaxpu=1.5 vminpu=0.92 daily=IP
New load.pip751923-2 phases=1 bus=5009129022.3.1.4 model=3 kv=0.22 kw=0.013378190639269408 pf=0.92 conn=delta status=variable vmaxpu=1.5 vminpu=0.92 daily=IP

New load.pip752129-1 phases=1 bus=5008842868.3.1.4 model=2 kv=0.22 kw=0.037454058219178084 pf=0.92 conn=delta status=variable vmaxpu=1.5 vminpu=0.92 daily=IP
New load.pip752129-2 phases=1 bus=5008842868.3.1.4 model=3 kv=0.22 kw=0.037454058219178084 pf=0.92 conn=delta status=variable vmaxpu=1.5 vminpu=0.92 daily=IP

New load.pip752196-1 phases=1 bus=5008964108.3.1.4 model=2 kv=0.22 kw=0.013378190639269408 pf=0.92 conn=delta status=variable vmaxpu=1.5 vminpu=0.92 daily=IP
New load.pip752196-2 phases=1 bus=5008964108.3.1.4 model=3 kv=0.22 kw=0.013378190639269408 pf=0.92 conn=delta status=variable vmaxpu=1.5 vminpu=0.92 daily=IP

New load.pip752552-1 phases=1 bus=5001816497.3.1.4 model=2 kv=0.22 kw=0.00882841324200913 pf=0.92 conn=delta status=variable vmaxpu=1.5 vminpu=0.92 daily=IP
New load.pip752552-2 phases=1 bus=5001816497.3.1.4 model=3 kv=0.22 kw=0.00882841324200913 pf=0.92 conn=delta status=variable vmaxpu=1.5 vminpu=0.92 daily=IP

New load.pip752627-1 phases=1 bus=5008842370.2.3.4 model=2 kv=0.22 kw=0.02407829908675799 pf=0.92 conn=delta status=variable vmaxpu=1.5 vminpu=0.92 daily=IP
New load.pip752627-2 phases=1 bus=5008842370.2.3.4 model=3 kv=0.22 kw=0.02407829908675799 pf=0.92 conn=delta status=variable vmaxpu=1.5 vminpu=0.92 daily=IP

New load.pip752644-1 phases=1 bus=5001077521.1.2.4 model=2 kv=0.22 kw=0.00882841324200913 pf=0.92 conn=delta status=variable vmaxpu=1.5 vminpu=0.92 daily=IP
New load.pip752644-2 phases=1 bus=5001077521.1.2.4 model=3 kv=0.22 kw=0.00882841324200913 pf=0.92 conn=delta status=variable vmaxpu=1.5 vminpu=0.92 daily=IP

New load.pip752795-1 phases=1 bus=5008842838.1.2.4 model=2 kv=0.22 kw=0.03076687785388128 pf=0.92 conn=delta status=variable vmaxpu=1.5 vminpu=0.92 daily=IP
New load.pip752795-2 phases=1 bus=5008842838.1.2.4 model=3 kv=0.22 kw=0.03076687785388128 pf=0.92 conn=delta status=variable vmaxpu=1.5 vminpu=0.92 daily=IP
