New line.ram2870347 phases=3 bus1=2039846.3.1.4 bus2=4002870347.3.1.4 length=0.017 units=km linecode=CABBTG05_4_2_3
New line.ram2870354 phases=3 bus1=2039846.3.1.4 bus2=4002870354.3.1.4 length=0.017 units=km linecode=CABBTG05_4_2_3
New line.ram2870361 phases=3 bus1=2039853.2.3.4 bus2=4002870361.2.3.4 length=0.017 units=km linecode=CABBTG05_4_2_3
New line.ram2870368 phases=4 bus1=2039853.1.2.3.4 bus2=4002870368.1.2.3.4 length=0.017 units=km linecode=CABBTG07_4_3_4
New line.ram2870375 phases=3 bus1=2039860.2.3.4 bus2=4002870375.2.3.4 length=0.017 units=km linecode=CABBTG05_4_2_3
New line.ram2870382 phases=3 bus1=2039860.2.3.4 bus2=4002870382.2.3.4 length=0.017 units=km linecode=CABBTG05_4_2_3
New line.ram2870389 phases=3 bus1=2039867.1.2.4 bus2=4002870389.1.2.4 length=0.017 units=km linecode=CABBTG05_4_2_3
New line.ram2870396 phases=3 bus1=2039867.1.2.4 bus2=4002870396.1.2.4 length=0.017 units=km linecode=CABBTG05_4_2_3
New line.ram2870403 phases=4 bus1=2039874.1.2.3.4 bus2=4002870403.1.2.3.4 length=0.017 units=km linecode=CABBTG07_4_3_4
New line.ram2870410 phases=3 bus1=2039881.1.2.4 bus2=4002870410.1.2.4 length=0.017 units=km linecode=CABBTG05_4_2_3
New line.ram2870417 phases=3 bus1=2039881.3.1.4 bus2=4002870417.3.1.4 length=0.017 units=km linecode=CABBTG05_4_2_3
New line.ram2870424 phases=3 bus1=2039881.1.2.4 bus2=4002870424.1.2.4 length=0.017 units=km linecode=CABBTG05_4_2_3
New line.ram2870431 phases=3 bus1=2039881.1.2.4 bus2=4002870431.1.2.4 length=0.017 units=km linecode=CABBTG05_4_2_3
New line.ram2870438 phases=3 bus1=2039888.2.3.4 bus2=4002870438.2.3.4 length=0.017 units=km linecode=CABBTG05_4_2_3
New line.ram2870445 phases=3 bus1=2039888.2.3.4 bus2=4002870445.2.3.4 length=0.017 units=km linecode=CABBTG05_4_2_3
New line.ram2870452 phases=3 bus1=2039888.2.3.4 bus2=4002870452.2.3.4 length=0.017 units=km linecode=CABBTG05_4_2_3
New line.ram2870459 phases=3 bus1=2039888.2.3.4 bus2=4002870459.2.3.4 length=0.017 units=km linecode=CABBTG05_4_2_3
New line.ram2870466 phases=3 bus1=2039902.1.2.4 bus2=4002870466.1.2.4 length=0.017 units=km linecode=CABBTG05_4_2_3
New line.ram2870473 phases=3 bus1=2039902.2.3.4 bus2=4002870473.2.3.4 length=0.017 units=km linecode=CABBTG05_4_2_3
New line.ram2870480 phases=3 bus1=2039902.2.3.4 bus2=4002870480.2.3.4 length=0.017 units=km linecode=CABBTG05_4_2_3
New line.ram2870487 phases=3 bus1=2039902.2.3.4 bus2=4002870487.2.3.4 length=0.017 units=km linecode=CABBTG05_4_2_3
New line.ram2870494 phases=3 bus1=2039909.1.2.4 bus2=4002870494.1.2.4 length=0.017 units=km linecode=CABBTG05_4_2_3
New line.ram2870501 phases=3 bus1=2039909.1.2.4 bus2=4002870501.1.2.4 length=0.017 units=km linecode=CABBTG05_4_2_3
New line.ram2870508 phases=4 bus1=2039916.1.2.3.4 bus2=4002870508.1.2.3.4 length=0.017 units=km linecode=CABBTG06_4_3_4
New line.ram2870515 phases=3 bus1=2039923.1.2.4 bus2=4002870515.1.2.4 length=0.017 units=km linecode=CABBTG05_4_2_3
New line.ram2870522 phases=3 bus1=2039923.1.2.4 bus2=4002870522.1.2.4 length=0.017 units=km linecode=CABBTG05_4_2_3
New line.ram2870529 phases=3 bus1=2039923.2.3.4 bus2=4002870529.2.3.4 length=0.017 units=km linecode=CABBTG05_4_2_3
New line.ram2870536 phases=3 bus1=2039923.2.3.4 bus2=4002870536.2.3.4 length=0.017 units=km linecode=CABBTG05_4_2_3
New line.ram2882289 phases=4 bus1=2047252.1.2.3.4 bus2=4002882289.1.2.3.4 length=0.017 units=km linecode=CABBTG07_4_3_4
New line.ram2882296 phases=3 bus1=2047259.1.2.4 bus2=4002882296.1.2.4 length=0.017 units=km linecode=CABBTG05_4_2_3
New line.ram2882303 phases=3 bus1=2047259.1.2.4 bus2=4002882303.1.2.4 length=0.017 units=km linecode=CABBTG05_4_2_3
New line.ram2882310 phases=3 bus1=2047259.2.3.4 bus2=4002882310.2.3.4 length=0.017 units=km linecode=CABBTG05_4_2_3
New line.ram2882317 phases=3 bus1=2047259.2.3.4 bus2=4002882317.2.3.4 length=0.017 units=km linecode=CABBTG05_4_2_3
New line.ram2882324 phases=3 bus1=2047266.2.3.4 bus2=4002882324.2.3.4 length=0.017 units=km linecode=CABBTG05_4_2_3
New line.ram2882331 phases=3 bus1=2047266.2.3.4 bus2=4002882331.2.3.4 length=0.017 units=km linecode=CABBTG05_4_2_3
New line.ram2882338 phases=3 bus1=2047266.1.2.4 bus2=4002882338.1.2.4 length=0.017 units=km linecode=CABBTG05_4_2_3
New line.ram2882345 phases=3 bus1=2047273.2.3.4 bus2=4002882345.2.3.4 length=0.017 units=km linecode=CABBTG05_4_2_3
New line.ram2882352 phases=3 bus1=2047273.3.1.4 bus2=4002882352.3.1.4 length=0.017 units=km linecode=CABBTG05_4_2_3
New line.ram2882359 phases=3 bus1=2047280.1.2.4 bus2=4002882359.1.2.4 length=0.017 units=km linecode=CABBTG05_4_2_3
New line.ram2882366 phases=3 bus1=2047280.1.2.4 bus2=4002882366.1.2.4 length=0.017 units=km linecode=CABBTG05_4_2_3
New line.ram2882373 phases=3 bus1=2047287.2.3.4 bus2=4002882373.2.3.4 length=0.017 units=km linecode=CABBTG05_4_2_3
New line.ram2882380 phases=3 bus1=2047294.2.3.4 bus2=4002882380.2.3.4 length=0.017 units=km linecode=CABBTG05_4_2_3
New line.ram2882387 phases=3 bus1=2047294.2.3.4 bus2=4002882387.2.3.4 length=0.017 units=km linecode=CABBTG05_4_2_3
New line.ram2882401 phases=3 bus1=2047301.3.1.4 bus2=4002882401.3.1.4 length=0.017 units=km linecode=CABBTG05_4_2_3
New line.ram2882408 phases=3 bus1=2047308.3.1.4 bus2=4002882408.3.1.4 length=0.017 units=km linecode=CABBTG05_4_2_3
New line.ram2882422 phases=4 bus1=2047322.1.2.3.4 bus2=4002882422.1.2.3.4 length=0.017 units=km linecode=CABBTG07_4_3_4
New line.ram2882394 phases=3 bus1=2047301.3.1.4 bus2=4002882394.3.1.4 length=0.018 units=km linecode=CABBTG05_4_2_3
New line.ram2904241 phases=3 bus1=2278112.1.2.4 bus2=4002904241.1.2.4 length=0.017 units=km linecode=CABBTG05_4_2_3
New line.ram2904248 phases=4 bus1=2059334.1.2.3.4 bus2=4002904248.1.2.3.4 length=0.017 units=km linecode=CABBTG07_4_3_4
New line.ram2904255 phases=3 bus1=2059334.1.2.4 bus2=4002904255.1.2.4 length=0.017 units=km linecode=CABBTG05_4_2_3
New line.ram2904262 phases=4 bus1=2059341.1.2.3.4 bus2=4002904262.1.2.3.4 length=0.017 units=km linecode=CABBTG07_4_3_4
New line.ram2904269 phases=2 bus1=2059369.3.4 bus2=4002904269.3.4 length=0.017 units=km linecode=CABBTG01_4_1_2
New line.ram2904276 phases=3 bus1=2059376.2.3.4 bus2=4002904276.2.3.4 length=0.017 units=km linecode=CABBTG05_4_2_3
New line.ram2904283 phases=2 bus1=2059383.1.4 bus2=4002904283.1.4 length=0.017 units=km linecode=CABBTG01_4_1_2
New line.ram2904290 phases=3 bus1=2059390.1.2.4 bus2=4002904290.1.2.4 length=0.017 units=km linecode=CABBTG05_4_2_3
New line.ram2904297 phases=3 bus1=2059390.1.2.4 bus2=4002904297.1.2.4 length=0.017 units=km linecode=CABBTG05_4_2_3
New line.ram2904304 phases=3 bus1=2059390.1.2.4 bus2=4002904304.1.2.4 length=0.017 units=km linecode=CABBTG05_4_2_3
New line.ram2904311 phases=3 bus1=2059390.1.2.4 bus2=4002904311.1.2.4 length=0.017 units=km linecode=CABBTG05_4_2_3
New line.ram2904318 phases=3 bus1=2059397.3.1.4 bus2=4002904318.3.1.4 length=0.017 units=km linecode=CABBTG05_4_2_3
New line.ram2904325 phases=4 bus1=2059397.1.2.3.4 bus2=4002904325.1.2.3.4 length=0.017 units=km linecode=CABBTG07_4_3_4
New line.ram2904332 phases=3 bus1=2059397.2.3.4 bus2=4002904332.2.3.4 length=0.017 units=km linecode=CABBTG05_4_2_3
New line.ram2904339 phases=4 bus1=2059404.1.2.3.4 bus2=4002904339.1.2.3.4 length=0.017 units=km linecode=CABBTG07_4_3_4
New line.ram2904346 phases=3 bus1=2059404.2.3.4 bus2=4002904346.2.3.4 length=0.017 units=km linecode=CABBTG05_4_2_3
New line.ram2904353 phases=3 bus1=2059404.3.1.4 bus2=4002904353.3.1.4 length=0.017 units=km linecode=CABBTG05_4_2_3
New line.ram2904360 phases=3 bus1=2059404.1.2.4 bus2=4002904360.1.2.4 length=0.017 units=km linecode=CABBTG05_4_2_3
New line.ram2904367 phases=3 bus1=2059411.2.3.4 bus2=4002904367.2.3.4 length=0.017 units=km linecode=CABBTG05_4_2_3
New line.ram2904374 phases=4 bus1=2059418.1.2.3.4 bus2=4002904374.1.2.3.4 length=0.017 units=km linecode=CABBTG07_4_3_4
New line.ram2904381 phases=3 bus1=2059439.2.3.4 bus2=4002904381.2.3.4 length=0.017 units=km linecode=CABBTG05_4_2_3
New line.ram2904388 phases=3 bus1=2059439.3.1.4 bus2=4002904388.3.1.4 length=0.017 units=km linecode=CABBTG05_4_2_3
New line.ram2904395 phases=4 bus1=2059446.1.2.3.4 bus2=4002904395.1.2.3.4 length=0.017 units=km linecode=CABBTG07_4_3_4
New line.ram2904402 phases=3 bus1=2059453.3.1.4 bus2=4002904402.3.1.4 length=0.017 units=km linecode=CABBTG05_4_2_3
New line.ram2904409 phases=3 bus1=2059453.3.1.4 bus2=4002904409.3.1.4 length=0.017 units=km linecode=CABBTG05_4_2_3
New line.ram2904416 phases=3 bus1=2059453.3.1.4 bus2=4002904416.3.1.4 length=0.017 units=km linecode=CABBTG05_4_2_3
New line.ram2904423 phases=3 bus1=2059453.3.1.4 bus2=4002904423.3.1.4 length=0.017 units=km linecode=CABBTG05_4_2_3
New line.ram2904430 phases=3 bus1=2059453.1.2.4 bus2=4002904430.1.2.4 length=0.017 units=km linecode=CABBTG05_4_2_3
New line.ram2904437 phases=3 bus1=2059460.1.2.4 bus2=4002904437.1.2.4 length=0.017 units=km linecode=CABBTG05_4_2_3
New line.ram2904444 phases=3 bus1=2059460.2.3.4 bus2=4002904444.2.3.4 length=0.017 units=km linecode=CABBTG05_4_2_3
New line.ram2904451 phases=3 bus1=2059467.1.2.4 bus2=4002904451.1.2.4 length=0.017 units=km linecode=CABBTG05_4_2_3
New line.ram2904458 phases=3 bus1=2059467.2.3.4 bus2=4002904458.2.3.4 length=0.017 units=km linecode=CABBTG05_4_2_3
New line.ram2953262 phases=3 bus1=2092633.1.2.4 bus2=4002953262.1.2.4 length=0.017 units=km linecode=CABBTG04_4_2_3
New line.ram2953269 phases=3 bus1=2092640.1.2.4 bus2=4002953269.1.2.4 length=0.017 units=km linecode=CABBTG05_4_2_3
New line.ram2953276 phases=3 bus1=2092654.3.1.4 bus2=4002953276.3.1.4 length=0.017 units=km linecode=CABBTG05_4_2_3
New line.ram2953283 phases=4 bus1=2092661.1.2.3.4 bus2=4002953283.1.2.3.4 length=0.017 units=km linecode=CABBTG07_4_3_4
New line.ram2953290 phases=3 bus1=2092661.3.1.4 bus2=4002953290.3.1.4 length=0.017 units=km linecode=CABBTG05_4_2_3
New line.ram2953297 phases=3 bus1=2092661.3.1.4 bus2=4002953297.3.1.4 length=0.017 units=km linecode=CABBTG05_4_2_3
New line.ram2953304 phases=4 bus1=2092661.1.2.3.4 bus2=4002953304.1.2.3.4 length=0.017 units=km linecode=CABBTG07_4_3_4
New line.ram2953311 phases=4 bus1=2092668.1.2.3.4 bus2=4002953311.1.2.3.4 length=0.017 units=km linecode=CABBTG07_4_3_4
New line.ram2953318 phases=3 bus1=2092668.3.1.4 bus2=4002953318.3.1.4 length=0.017 units=km linecode=CABBTG05_4_2_3
New line.ram2953325 phases=4 bus1=2092668.1.2.3.4 bus2=4002953325.1.2.3.4 length=0.017 units=km linecode=CABBTG06_4_3_4
New line.ram2953332 phases=3 bus1=2092682.2.3.4 bus2=4002953332.2.3.4 length=0.017 units=km linecode=CABBTG05_4_2_3
New line.ram2953339 phases=3 bus1=2092682.3.1.4 bus2=4002953339.3.1.4 length=0.017 units=km linecode=CABBTG05_4_2_3
New line.ram2953346 phases=3 bus1=2092717.1.2.4 bus2=4002953346.1.2.4 length=0.017 units=km linecode=CABBTG05_4_2_3
New line.ram2953353 phases=3 bus1=2092696.2.3.4 bus2=4002953353.2.3.4 length=0.017 units=km linecode=CABBTG05_4_2_3
New line.ram2953360 phases=2 bus1=2092696.3.4 bus2=4002953360.3.4 length=0.017 units=km linecode=CABBTG01_4_1_2
New line.ram2953367 phases=3 bus1=2092696.2.3.4 bus2=4002953367.2.3.4 length=0.017 units=km linecode=CABBTG05_4_2_3
New line.ram2953374 phases=3 bus1=2092703.3.1.4 bus2=4002953374.3.1.4 length=0.017 units=km linecode=CABBTG05_4_2_3
New line.ram2953381 phases=3 bus1=2092703.1.2.4 bus2=4002953381.1.2.4 length=0.017 units=km linecode=CABBTG05_4_2_3
New line.ram2953388 phases=3 bus1=2092703.2.3.4 bus2=4002953388.2.3.4 length=0.017 units=km linecode=CABBTG05_4_2_3
New line.ram2953395 phases=4 bus1=2092703.1.2.3.4 bus2=4002953395.1.2.3.4 length=0.017 units=km linecode=CABBTG06_4_3_4
New line.ram2953402 phases=3 bus1=2092703.2.3.4 bus2=4002953402.2.3.4 length=0.017 units=km linecode=CABBTG05_4_2_3
New line.ram2953409 phases=4 bus1=2092710.1.2.3.4 bus2=4002953409.1.2.3.4 length=0.017 units=km linecode=CABBTG07_4_3_4
New line.ram2953416 phases=4 bus1=2092710.1.2.3.4 bus2=4002953416.1.2.3.4 length=0.017 units=km linecode=CABBTG07_4_3_4
New line.ram2953423 phases=4 bus1=2092710.1.2.3.4 bus2=4002953423.1.2.3.4 length=0.017 units=km linecode=CABBTG07_4_3_4
New line.ram2953430 phases=4 bus1=2092710.1.2.3.4 bus2=4002953430.1.2.3.4 length=0.017 units=km linecode=CABBTG07_4_3_4
New line.ram2953437 phases=3 bus1=2092717.2.3.4 bus2=4002953437.2.3.4 length=0.017 units=km linecode=CABBTG04_4_2_3
New line.ram2953444 phases=4 bus1=2092717.1.2.3.4 bus2=4002953444.1.2.3.4 length=0.017 units=km linecode=CABBTG07_4_3_4
New line.ram2953451 phases=4 bus1=2092724.1.2.3.4 bus2=4002953451.1.2.3.4 length=0.017 units=km linecode=CABBTG07_4_3_4
New line.ram2953458 phases=2 bus1=2092724.3.4 bus2=4002953458.3.4 length=0.017 units=km linecode=CABBTG01_4_1_2
New line.ram2953465 phases=4 bus1=2092738.1.2.3.4 bus2=4002953465.1.2.3.4 length=0.017 units=km linecode=CABBTG07_4_3_4
New line.ram2953472 phases=3 bus1=2092738.3.1.4 bus2=4002953472.3.1.4 length=0.017 units=km linecode=CABBTG05_4_2_3
New line.ram2953479 phases=3 bus1=2092738.2.3.4 bus2=4002953479.2.3.4 length=0.017 units=km linecode=CABBTG05_4_2_3
New line.ram2953486 phases=3 bus1=2092738.1.2.4 bus2=4002953486.1.2.4 length=0.017 units=km linecode=CABBTG05_4_2_3
New line.ram2953493 phases=3 bus1=2092745.1.2.4 bus2=4002953493.1.2.4 length=0.017 units=km linecode=CABBTG05_4_2_3
New line.ram2953500 phases=4 bus1=2092745.1.2.3.4 bus2=4002953500.1.2.3.4 length=0.017 units=km linecode=CABBTG06_4_3_4
New line.ram2953514 phases=3 bus1=2092759.2.3.4 bus2=4002953514.2.3.4 length=0.017 units=km linecode=CABBTG05_4_2_3
New line.ram2953521 phases=2 bus1=2092759.3.4 bus2=4002953521.3.4 length=0.017 units=km linecode=CABBTG02_4_1_2
New line.ram2953535 phases=3 bus1=2092766.1.2.4 bus2=4002953535.1.2.4 length=0.017 units=km linecode=CABBTG05_4_2_3
New line.ram2953542 phases=3 bus1=2092766.1.2.4 bus2=4002953542.1.2.4 length=0.017 units=km linecode=CABBTG05_4_2_3
New line.ram2953549 phases=3 bus1=2092773.3.1.4 bus2=4002953549.3.1.4 length=0.017 units=km linecode=CABBTG05_4_2_3
New line.ram2953556 phases=3 bus1=2092773.3.1.4 bus2=4002953556.3.1.4 length=0.017 units=km linecode=CABBTG05_4_2_3
New line.ram2953563 phases=4 bus1=2092780.1.2.3.4 bus2=4002953563.1.2.3.4 length=0.017 units=km linecode=CABBTG06_4_3_4
New line.ram2953570 phases=3 bus1=2092780.3.1.4 bus2=4002953570.3.1.4 length=0.017 units=km linecode=CABBTG05_4_2_3
New line.ram2953577 phases=4 bus1=2092780.1.2.3.4 bus2=4002953577.1.2.3.4 length=0.017 units=km linecode=CABBTG07_4_3_4
New line.ram2953584 phases=3 bus1=117187039.1.2.4 bus2=4002953584.1.2.4 length=0.017 units=km linecode=CABBTG05_4_2_3
New line.ram2953591 phases=4 bus1=2092780.1.2.3.4 bus2=4002953591.1.2.3.4 length=0.017 units=km linecode=CABBTG07_4_3_4
New line.ram2953598 phases=3 bus1=2092787.3.1.4 bus2=4002953598.3.1.4 length=0.017 units=km linecode=CABBTG05_4_2_3
New line.ram2953605 phases=3 bus1=2092787.1.2.4 bus2=4002953605.1.2.4 length=0.017 units=km linecode=CABBTG05_4_2_3
New line.ram2953612 phases=3 bus1=2092787.1.2.4 bus2=4002953612.1.2.4 length=0.017 units=km linecode=CABBTG05_4_2_3
New line.ram2953619 phases=3 bus1=2092808.3.1.4 bus2=4002953619.3.1.4 length=0.017 units=km linecode=CABBTG05_4_2_3
New line.ram2953626 phases=3 bus1=2092808.2.3.4 bus2=4002953626.2.3.4 length=0.017 units=km linecode=CABBTG05_4_2_3
New line.ram2953633 phases=3 bus1=2092808.2.3.4 bus2=4002953633.2.3.4 length=0.017 units=km linecode=CABBTG05_4_2_3
New line.ram2953640 phases=3 bus1=2092808.3.1.4 bus2=4002953640.3.1.4 length=0.017 units=km linecode=CABBTG05_4_2_3
New line.ram2953647 phases=3 bus1=2092808.2.3.4 bus2=4002953647.2.3.4 length=0.017 units=km linecode=CABBTG05_4_2_3
New line.ram2953654 phases=3 bus1=2092808.1.2.4 bus2=4002953654.1.2.4 length=0.017 units=km linecode=CABBTG05_4_2_3
New line.ram2961298 phases=3 bus1=2098534.3.1.4 bus2=4002961298.3.1.4 length=0.017 units=km linecode=CABBTG05_4_2_3
New line.ram2961305 phases=4 bus1=2098534.1.2.3.4 bus2=4002961305.1.2.3.4 length=0.017 units=km linecode=CABBTG07_4_3_4
New line.ram2961312 phases=3 bus1=2098534.1.2.4 bus2=4002961312.1.2.4 length=0.017 units=km linecode=CABBTG05_4_2_3
New line.ram2961319 phases=3 bus1=2098541.1.2.4 bus2=4002961319.1.2.4 length=0.017 units=km linecode=CABBTG05_4_2_3
New line.ram2961326 phases=3 bus1=2098541.1.2.4 bus2=4002961326.1.2.4 length=0.017 units=km linecode=CABBTG05_4_2_3
New line.ram2961333 phases=3 bus1=2098548.2.3.4 bus2=4002961333.2.3.4 length=0.017 units=km linecode=CABBTG05_4_2_3
New line.ram2961340 phases=3 bus1=2098548.1.2.4 bus2=4002961340.1.2.4 length=0.017 units=km linecode=CABBTG05_4_2_3
New line.ram2961347 phases=3 bus1=2098555.1.2.4 bus2=4002961347.1.2.4 length=0.017 units=km linecode=CABBTG05_4_2_3
New line.ram2961354 phases=3 bus1=2098555.1.2.4 bus2=4002961354.1.2.4 length=0.017 units=km linecode=CABBTG05_4_2_3
New line.ram2961361 phases=3 bus1=2098555.1.2.4 bus2=4002961361.1.2.4 length=0.017 units=km linecode=CABBTG05_4_2_3
New line.ram2961368 phases=3 bus1=2098555.1.2.4 bus2=4002961368.1.2.4 length=0.017 units=km linecode=CABBTG05_4_2_3
New line.ram2961375 phases=4 bus1=2098555.1.2.3.4 bus2=4002961375.1.2.3.4 length=0.017 units=km linecode=CABBTG07_4_3_4
New line.ram2961382 phases=3 bus1=2098555.1.2.4 bus2=4002961382.1.2.4 length=0.017 units=km linecode=CABBTG05_4_2_3
New line.ram2961389 phases=3 bus1=2098576.2.3.4 bus2=4002961389.2.3.4 length=0.017 units=km linecode=CABBTG05_4_2_3
New line.ram2961396 phases=3 bus1=2098583.3.1.4 bus2=4002961396.3.1.4 length=0.017 units=km linecode=CABBTG05_4_2_3
New line.ram2961403 phases=3 bus1=2098590.1.2.4 bus2=4002961403.1.2.4 length=0.017 units=km linecode=CABBTG05_4_2_3
New line.ram2961410 phases=3 bus1=2098590.1.2.4 bus2=4002961410.1.2.4 length=0.017 units=km linecode=CABBTG05_4_2_3
New line.ram2961417 phases=3 bus1=2098590.2.3.4 bus2=4002961417.2.3.4 length=0.017 units=km linecode=CABBTG05_4_2_3
New line.ram2961424 phases=3 bus1=2098590.3.1.4 bus2=4002961424.3.1.4 length=0.017 units=km linecode=CABBTG05_4_2_3
New line.ram2961431 phases=3 bus1=2098590.2.3.4 bus2=4002961431.2.3.4 length=0.017 units=km linecode=CABBTG05_4_2_3
New line.ram2961438 phases=3 bus1=2098597.1.2.4 bus2=4002961438.1.2.4 length=0.017 units=km linecode=CABBTG05_4_2_3
New line.ram2961445 phases=3 bus1=2098604.1.2.4 bus2=4002961445.1.2.4 length=0.017 units=km linecode=CABBTG05_4_2_3
New line.ram2961452 phases=3 bus1=2098604.2.3.4 bus2=4002961452.2.3.4 length=0.017 units=km linecode=CABBTG05_4_2_3
New line.ram2961459 phases=3 bus1=2098604.1.2.4 bus2=4002961459.1.2.4 length=0.017 units=km linecode=CABBTG05_4_2_3
New line.ram2961466 phases=3 bus1=2098604.3.1.4 bus2=4002961466.3.1.4 length=0.017 units=km linecode=CABBTG05_4_2_3
New line.ram2961473 phases=3 bus1=2098604.1.2.4 bus2=4002961473.1.2.4 length=0.017 units=km linecode=CABBTG05_4_2_3
New line.ram2961480 phases=3 bus1=2098611.2.3.4 bus2=4002961480.2.3.4 length=0.017 units=km linecode=CABBTG05_4_2_3
New line.ram2961487 phases=4 bus1=2098611.1.2.3.4 bus2=4002961487.1.2.3.4 length=0.017 units=km linecode=CABBTG07_4_3_4
New line.ram2961494 phases=3 bus1=2098632.1.2.4 bus2=4002961494.1.2.4 length=0.017 units=km linecode=CABBTG05_4_2_3
New line.ram2961501 phases=3 bus1=2098632.2.3.4 bus2=4002961501.2.3.4 length=0.017 units=km linecode=CABBTG05_4_2_3
New line.ram2961508 phases=3 bus1=2098639.2.3.4 bus2=4002961508.2.3.4 length=0.017 units=km linecode=CABBTG05_4_2_3
New line.ram2961515 phases=3 bus1=2098639.2.3.4 bus2=4002961515.2.3.4 length=0.017 units=km linecode=CABBTG05_4_2_3
New line.ram2961522 phases=3 bus1=2098646.3.1.4 bus2=4002961522.3.1.4 length=0.017 units=km linecode=CABBTG05_4_2_3
New line.ram2961529 phases=3 bus1=2098653.2.3.4 bus2=4002961529.2.3.4 length=0.017 units=km linecode=CABBTG05_4_2_3
New line.ram2962040 phases=3 bus1=2099633.3.1.4 bus2=4002962040.3.1.4 length=0.017 units=km linecode=CABBTG05_4_2_3
New line.ram2962047 phases=3 bus1=2099633.1.2.4 bus2=4002962047.1.2.4 length=0.017 units=km linecode=CABBTG05_4_2_3
New line.ram2962054 phases=4 bus1=2099633.1.2.3.4 bus2=4002962054.1.2.3.4 length=0.017 units=km linecode=CABBTG07_4_3_4
New line.ram2962061 phases=3 bus1=2099633.2.3.4 bus2=4002962061.2.3.4 length=0.017 units=km linecode=CABBTG05_4_2_3
New line.ram2962068 phases=3 bus1=2099661.1.2.4 bus2=4002962068.1.2.4 length=0.017 units=km linecode=CABBTG05_4_2_3
New line.ram2962075 phases=3 bus1=2099661.3.1.4 bus2=4002962075.3.1.4 length=0.017 units=km linecode=CABBTG05_4_2_3
New line.ram2962082 phases=3 bus1=2099661.3.1.4 bus2=4002962082.3.1.4 length=0.017 units=km linecode=CABBTG05_4_2_3
New line.ram2962089 phases=4 bus1=2099668.1.2.3.4 bus2=4002962089.1.2.3.4 length=0.017 units=km linecode=CABBTG07_4_3_4
New line.ram2962096 phases=3 bus1=2099689.1.2.4 bus2=4002962096.1.2.4 length=0.017 units=km linecode=CABBTG05_4_2_3
New line.ram2962103 phases=3 bus1=2099689.1.2.4 bus2=4002962103.1.2.4 length=0.017 units=km linecode=CABBTG05_4_2_3
New line.ram2962110 phases=4 bus1=2099724.1.2.3.4 bus2=4002962110.1.2.3.4 length=0.017 units=km linecode=CABBTG07_4_3_4
New line.ram2962117 phases=4 bus1=2099731.1.2.3.4 bus2=4002962117.1.2.3.4 length=0.017 units=km linecode=CABBTG07_4_3_4
New line.ram2962124 phases=4 bus1=2099731.1.2.3.4 bus2=4002962124.1.2.3.4 length=0.017 units=km linecode=CABBTG07_4_3_4
New line.ram2963993 phases=3 bus1=6008454.1.2.4 bus2=4002963993.1.2.4 length=0.017 units=km linecode=CABBTG05_4_2_3
New line.ram2964000 phases=3 bus1=6008454.2.3.4 bus2=4002964000.2.3.4 length=0.017 units=km linecode=CABBTG05_4_2_3
New line.ram2964007 phases=3 bus1=6008454.1.2.4 bus2=4002964007.1.2.4 length=0.017 units=km linecode=CABBTG05_4_2_3
New line.ram2964014 phases=3 bus1=6008454.2.3.4 bus2=4002964014.2.3.4 length=0.017 units=km linecode=CABBTG05_4_2_3
New line.ram2964021 phases=3 bus1=6008454.2.3.4 bus2=4002964021.2.3.4 length=0.017 units=km linecode=CABBTG05_4_2_3
New line.ram2964028 phases=4 bus1=6008454.1.2.3.4 bus2=4002964028.1.2.3.4 length=0.017 units=km linecode=CABBTG10_4_3_4
New line.ram2964035 phases=3 bus1=2100886.2.3.4 bus2=4002964035.2.3.4 length=0.017 units=km linecode=CABBTG05_4_2_3
New line.ram2964042 phases=3 bus1=2100886.3.1.4 bus2=4002964042.3.1.4 length=0.017 units=km linecode=CABBTG05_4_2_3
New line.ram2966240 phases=3 bus1=2102818.1.2.4 bus2=4002966240.1.2.4 length=0.017 units=km linecode=CABBTG05_4_2_3
New line.ram2966247 phases=3 bus1=2102818.2.3.4 bus2=4002966247.2.3.4 length=0.017 units=km linecode=CABBTG05_4_2_3
New line.ram2966254 phases=4 bus1=2099668.1.2.3.4 bus2=4002966254.1.2.3.4 length=0.017 units=km linecode=CABBTG07_4_3_4
New line.ram2966261 phases=4 bus1=2102825.1.2.3.4 bus2=4002966261.1.2.3.4 length=0.017 units=km linecode=CABBTG06_4_3_4
New line.ram2966268 phases=3 bus1=2102832.1.2.4 bus2=4002966268.1.2.4 length=0.017 units=km linecode=CABBTG05_4_2_3
New line.ram2966275 phases=3 bus1=2102832.1.2.4 bus2=4002966275.1.2.4 length=0.017 units=km linecode=CABBTG05_4_2_3
New line.ram2966282 phases=3 bus1=2102832.1.2.4 bus2=4002966282.1.2.4 length=0.017 units=km linecode=CABBTG05_4_2_3
New line.ram2966289 phases=3 bus1=2102832.1.2.4 bus2=4002966289.1.2.4 length=0.017 units=km linecode=CABBTG05_4_2_3
New line.ram2966296 phases=3 bus1=2102839.2.3.4 bus2=4002966296.2.3.4 length=0.017 units=km linecode=CABBTG05_4_2_3
New line.ram2966303 phases=3 bus1=2102839.2.3.4 bus2=4002966303.2.3.4 length=0.017 units=km linecode=CABBTG05_4_2_3
New line.ram2966310 phases=3 bus1=2102846.1.2.4 bus2=4002966310.1.2.4 length=0.017 units=km linecode=CABBTG05_4_2_3
New line.ram2966317 phases=4 bus1=2102860.1.2.3.4 bus2=4002966317.1.2.3.4 length=0.017 units=km linecode=CABBTG07_4_3_4
New line.ram2966324 phases=3 bus1=2102867.2.3.4 bus2=4002966324.2.3.4 length=0.017 units=km linecode=CABBTG05_4_2_3
New line.ram2966331 phases=4 bus1=2102874.1.2.3.4 bus2=4002966331.1.2.3.4 length=0.017 units=km linecode=CABBTG07_4_3_4
New line.ram2966338 phases=3 bus1=2102874.2.3.4 bus2=4002966338.2.3.4 length=0.017 units=km linecode=CABBTG05_4_2_3
New line.ram2966345 phases=3 bus1=2102874.3.1.4 bus2=4002966345.3.1.4 length=0.017 units=km linecode=CABBTG05_4_2_3
New line.ram2966352 phases=4 bus1=2102881.1.2.3.4 bus2=4002966352.1.2.3.4 length=0.017 units=km linecode=CABBTG07_4_3_4
New line.ram2966359 phases=3 bus1=2102888.3.1.4 bus2=4002966359.3.1.4 length=0.017 units=km linecode=CABBTG05_4_2_3
New line.ram2966366 phases=3 bus1=2102888.2.3.4 bus2=4002966366.2.3.4 length=0.017 units=km linecode=CABBTG05_4_2_3
New line.ram2966373 phases=3 bus1=2102909.2.3.4 bus2=4002966373.2.3.4 length=0.017 units=km linecode=CABBTG05_4_2_3
New line.ram2966380 phases=3 bus1=2102909.1.2.4 bus2=4002966380.1.2.4 length=0.017 units=km linecode=CABBTG05_4_2_3
New line.ram2966387 phases=3 bus1=2102916.3.1.4 bus2=4002966387.3.1.4 length=0.017 units=km linecode=CABBTG05_4_2_3
New line.ram2966394 phases=3 bus1=2102916.3.1.4 bus2=4002966394.3.1.4 length=0.017 units=km linecode=CABBTG05_4_2_3
New line.ram2966401 phases=3 bus1=2102930.1.2.4 bus2=4002966401.1.2.4 length=0.017 units=km linecode=CABBTG05_4_2_3
New line.ram2966408 phases=3 bus1=2102930.3.1.4 bus2=4002966408.3.1.4 length=0.017 units=km linecode=CABBTG05_4_2_3
New line.ram2966415 phases=4 bus1=2102930.1.2.3.4 bus2=4002966415.1.2.3.4 length=0.017 units=km linecode=CABBTG07_4_3_4
New line.ram2966422 phases=4 bus1=2102944.1.2.3.4 bus2=4002966422.1.2.3.4 length=0.017 units=km linecode=CABBTG07_4_3_4
New line.ram2966429 phases=3 bus1=2102951.1.2.4 bus2=4002966429.1.2.4 length=0.017 units=km linecode=CABBTG05_4_2_3
New line.ram2966436 phases=3 bus1=2102951.1.2.4 bus2=4002966436.1.2.4 length=0.017 units=km linecode=CABBTG05_4_2_3
New line.ram2966450 phases=3 bus1=2102979.2.3.4 bus2=4002966450.2.3.4 length=0.017 units=km linecode=CABBTG05_4_2_3
New line.ram2966457 phases=3 bus1=2102986.2.3.4 bus2=4002966457.2.3.4 length=0.017 units=km linecode=CABBTG05_4_2_3
New line.ram2966464 phases=4 bus1=2102986.1.2.3.4 bus2=4002966464.1.2.3.4 length=0.017 units=km linecode=CABBTG07_4_3_4
New line.ram2966471 phases=3 bus1=2102986.3.1.4 bus2=4002966471.3.1.4 length=0.017 units=km linecode=CABBTG05_4_2_3
New line.ram2966478 phases=3 bus1=2102993.3.1.4 bus2=4002966478.3.1.4 length=0.017 units=km linecode=CABBTG05_4_2_3
New line.ram2966485 phases=3 bus1=2103000.1.2.4 bus2=4002966485.1.2.4 length=0.017 units=km linecode=CABBTG05_4_2_3
New line.ram2966492 phases=3 bus1=2103007.1.2.4 bus2=4002966492.1.2.4 length=0.017 units=km linecode=CABBTG05_4_2_3
New line.ram2966499 phases=4 bus1=2103014.1.2.3.4 bus2=4002966499.1.2.3.4 length=0.017 units=km linecode=CABBTG07_4_3_4
New line.ram2966506 phases=3 bus1=2103014.2.3.4 bus2=4002966506.2.3.4 length=0.017 units=km linecode=CABBTG05_4_2_3
New line.ram2966513 phases=3 bus1=2103021.2.3.4 bus2=4002966513.2.3.4 length=0.017 units=km linecode=CABBTG05_4_2_3
New line.ram2966520 phases=3 bus1=2103021.3.1.4 bus2=4002966520.3.1.4 length=0.017 units=km linecode=CABBTG05_4_2_3
New line.ram2966527 phases=3 bus1=2103021.1.2.4 bus2=4002966527.1.2.4 length=0.017 units=km linecode=CABBTG05_4_2_3
New line.ram2966534 phases=3 bus1=2103042.2.3.4 bus2=4002966534.2.3.4 length=0.017 units=km linecode=CABBTG05_4_2_3
New line.ram2966541 phases=3 bus1=2108957.3.1.4 bus2=4002966541.3.1.4 length=0.017 units=km linecode=CABBTG05_4_2_3
New line.ram2966548 phases=3 bus1=2103049.3.1.4 bus2=4002966548.3.1.4 length=0.017 units=km linecode=CABBTG05_4_2_3
New line.ram2969950 phases=4 bus1=2105583.1.2.3.4 bus2=4002969950.1.2.3.4 length=0.017 units=km linecode=CABBTG07_4_3_4
New line.ram2969957 phases=3 bus1=2105590.1.2.4 bus2=4002969957.1.2.4 length=0.017 units=km linecode=CABBTG05_4_2_3
New line.ram2969964 phases=3 bus1=2105590.1.2.4 bus2=4002969964.1.2.4 length=0.017 units=km linecode=CABBTG05_4_2_3
New line.ram2969971 phases=3 bus1=2105590.1.2.4 bus2=4002969971.1.2.4 length=0.017 units=km linecode=CABBTG05_4_2_3
New line.ram2969978 phases=3 bus1=2105590.1.2.4 bus2=4002969978.1.2.4 length=0.017 units=km linecode=CABBTG05_4_2_3
New line.ram2969985 phases=3 bus1=2105604.2.3.4 bus2=4002969985.2.3.4 length=0.017 units=km linecode=CABBTG05_4_2_3
New line.ram2969992 phases=4 bus1=2105604.1.2.3.4 bus2=4002969992.1.2.3.4 length=0.017 units=km linecode=CABBTG07_4_3_4
New line.ram2969999 phases=3 bus1=2105639.2.3.4 bus2=4002969999.2.3.4 length=0.017 units=km linecode=CABBTG05_4_2_3
New line.ram2970006 phases=3 bus1=2105639.1.2.4 bus2=4002970006.1.2.4 length=0.017 units=km linecode=CABBTG04_4_2_3
New line.ram2970013 phases=4 bus1=2105667.1.2.3.4 bus2=4002970013.1.2.3.4 length=0.017 units=km linecode=CABBTG06_4_3_4
New line.ram2970020 phases=3 bus1=2105709.1.2.4 bus2=4002970020.1.2.4 length=0.017 units=km linecode=CABBTG05_4_2_3
New line.ram2974584 phases=3 bus1=2108852.2.3.4 bus2=4002974584.2.3.4 length=0.017 units=km linecode=CABBTG05_4_2_3
New line.ram2974591 phases=3 bus1=2108852.3.1.4 bus2=4002974591.3.1.4 length=0.017 units=km linecode=CABBTG05_4_2_3
New line.ram2974598 phases=3 bus1=2108859.2.3.4 bus2=4002974598.2.3.4 length=0.017 units=km linecode=CABBTG05_4_2_3
New line.ram2974605 phases=3 bus1=2108859.2.3.4 bus2=4002974605.2.3.4 length=0.017 units=km linecode=CABBTG05_4_2_3
New line.ram2974612 phases=3 bus1=2108873.1.2.4 bus2=4002974612.1.2.4 length=0.017 units=km linecode=CABBTG05_4_2_3
New line.ram2974619 phases=3 bus1=2108873.2.3.4 bus2=4002974619.2.3.4 length=0.017 units=km linecode=CABBTG05_4_2_3
New line.ram2974626 phases=3 bus1=2108873.3.1.4 bus2=4002974626.3.1.4 length=0.017 units=km linecode=CABBTG05_4_2_3
New line.ram2974633 phases=3 bus1=2108873.2.3.4 bus2=4002974633.2.3.4 length=0.017 units=km linecode=CABBTG05_4_2_3
New line.ram2974640 phases=3 bus1=2108880.1.2.4 bus2=4002974640.1.2.4 length=0.017 units=km linecode=CABBTG05_4_2_3
New line.ram2974647 phases=3 bus1=2108894.3.1.4 bus2=4002974647.3.1.4 length=0.017 units=km linecode=CABBTG05_4_2_3