New load.bt2834-1 phases=3 bus=1002964049.1.2.3.4 model=2 kv=0.22 kw=1.856222602739726 pf=0.92 conn=delta status=variable vmaxpu=1.5 vminpu=0.92 daily=COM1_5
New load.bt2834-2 phases=3 bus=1002964049.1.2.3.4 model=3 kv=0.22 kw=1.856222602739726 pf=0.92 conn=delta status=variable vmaxpu=1.5 vminpu=0.92 daily=COM1_5
New load.bt2884-1 phases=3 bus=1002882289.1.2.3.4 model=2 kv=0.22 kw=1.3975353881278538 pf=0.92 conn=delta status=variable vmaxpu=1.5 vminpu=0.92 daily=COM1_5
New load.bt2884-2 phases=3 bus=1002882289.1.2.3.4 model=3 kv=0.22 kw=1.3975353881278538 pf=0.92 conn=delta status=variable vmaxpu=1.5 vminpu=0.92 daily=COM1_5
New load.bt3964-1 phases=1 bus=1010744011.1.2.4 model=2 kv=0.22 kw=1.0820216894977168 pf=0.92 conn=delta status=variable vmaxpu=1.5 vminpu=0.92 daily=RES1_2
New load.bt3964-2 phases=1 bus=1010744011.1.2.4 model=3 kv=0.22 kw=1.0820216894977168 pf=0.92 conn=delta status=variable vmaxpu=1.5 vminpu=0.92 daily=RES1_2
New load.bt9877-1 phases=3 bus=1010621270.1.2.3.4 model=2 kv=0.22 kw=0.6512682648401826 pf=0.92 conn=delta status=variable vmaxpu=1.5 vminpu=0.92 daily=COM1_5
New load.bt9877-2 phases=3 bus=1010621270.1.2.3.4 model=3 kv=0.22 kw=0.6512682648401826 pf=0.92 conn=delta status=variable vmaxpu=1.5 vminpu=0.92 daily=COM1_5
New load.bt22880-1 phases=3 bus=1002870508.1.2.3.4 model=2 kv=0.22 kw=0.3581786529680365 pf=0.92 conn=delta status=variable vmaxpu=1.5 vminpu=0.92 daily=COM1_5
New load.bt22880-2 phases=3 bus=1002870508.1.2.3.4 model=3 kv=0.22 kw=0.3581786529680365 pf=0.92 conn=delta status=variable vmaxpu=1.5 vminpu=0.92 daily=COM1_5
New load.bt25172-1 phases=3 bus=1002953409.1.2.3.4 model=2 kv=0.22 kw=0.35186929223744284 pf=0.92 conn=delta status=variable vmaxpu=1.5 vminpu=0.92 daily=COM1_5
New load.bt25172-2 phases=3 bus=1002953409.1.2.3.4 model=3 kv=0.22 kw=0.35186929223744284 pf=0.92 conn=delta status=variable vmaxpu=1.5 vminpu=0.92 daily=COM1_5
New load.bt27079-1 phases=3 bus=1002963972.1.2.3.4 model=2 kv=0.22 kw=0.28228538812785386 pf=0.92 conn=delta status=variable vmaxpu=1.5 vminpu=0.92 daily=COM1_5
New load.bt27079-2 phases=3 bus=1002963972.1.2.3.4 model=3 kv=0.22 kw=0.28228538812785386 pf=0.92 conn=delta status=variable vmaxpu=1.5 vminpu=0.92 daily=COM1_5
New load.bt27844-1 phases=1 bus=1002882317.2.3.4 model=2 kv=0.22 kw=0.23288127853881277 pf=0.92 conn=delta status=variable vmaxpu=1.5 vminpu=0.92 daily=RES1_2
New load.bt27844-2 phases=1 bus=1002882317.2.3.4 model=3 kv=0.22 kw=0.23288127853881277 pf=0.92 conn=delta status=variable vmaxpu=1.5 vminpu=0.92 daily=RES1_2
New load.bt33114-1 phases=1 bus=1002953514.2.3.4 model=2 kv=0.22 kw=0.22259246575342467 pf=0.92 conn=delta status=variable vmaxpu=1.5 vminpu=0.92 daily=RES1_2
New load.bt33114-2 phases=1 bus=1002953514.2.3.4 model=3 kv=0.22 kw=0.22259246575342467 pf=0.92 conn=delta status=variable vmaxpu=1.5 vminpu=0.92 daily=RES1_2
New load.bt40722-1 phases=1 bus=1002953535.1.2.4 model=2 kv=0.22 kw=0.0950308219178082 pf=0.92 conn=delta status=variable vmaxpu=1.5 vminpu=0.92 daily=RES1_2
New load.bt40722-2 phases=1 bus=1002953535.1.2.4 model=3 kv=0.22 kw=0.0950308219178082 pf=0.92 conn=delta status=variable vmaxpu=1.5 vminpu=0.92 daily=RES1_2
New load.bt41597-1 phases=1 bus=1002953353.2.3.4 model=2 kv=0.22 kw=0.2653966894977169 pf=0.92 conn=delta status=variable vmaxpu=1.5 vminpu=0.92 daily=RES1_2
New load.bt41597-2 phases=1 bus=1002953353.2.3.4 model=3 kv=0.22 kw=0.2653966894977169 pf=0.92 conn=delta status=variable vmaxpu=1.5 vminpu=0.92 daily=RES1_2
New load.bt49928-1 phases=1 bus=1002882310.2.3.4 model=2 kv=0.22 kw=0.2175485159817352 pf=0.92 conn=delta status=variable vmaxpu=1.5 vminpu=0.92 daily=RES1_2
New load.bt49928-2 phases=1 bus=1002882310.2.3.4 model=3 kv=0.22 kw=0.2175485159817352 pf=0.92 conn=delta status=variable vmaxpu=1.5 vminpu=0.92 daily=RES1_2
New load.bt57886-1 phases=3 bus=1002882422.1.2.3.4 model=2 kv=0.22 kw=0.19850285388127853 pf=0.92 conn=delta status=variable vmaxpu=1.5 vminpu=0.92 daily=RES1_2
New load.bt57886-2 phases=3 bus=1002882422.1.2.3.4 model=3 kv=0.22 kw=0.19850285388127853 pf=0.92 conn=delta status=variable vmaxpu=1.5 vminpu=0.92 daily=RES1_2
New load.bt62412-1 phases=1 bus=1002953332.2.3.4 model=2 kv=0.22 kw=0.13162557077625572 pf=0.92 conn=delta status=variable vmaxpu=1.5 vminpu=0.92 daily=RES1_2
New load.bt62412-2 phases=1 bus=1002953332.2.3.4 model=3 kv=0.22 kw=0.13162557077625572 pf=0.92 conn=delta status=variable vmaxpu=1.5 vminpu=0.92 daily=RES1_2
New load.bt64433-1 phases=1 bus=1002963965.1.2.4 model=2 kv=0.22 kw=0.19885102739726027 pf=0.92 conn=delta status=variable vmaxpu=1.5 vminpu=0.92 daily=RES1_2
New load.bt64433-2 phases=1 bus=1002963965.1.2.4 model=3 kv=0.22 kw=0.19885102739726027 pf=0.92 conn=delta status=variable vmaxpu=1.5 vminpu=0.92 daily=RES1_2
New load.bt64778-1 phases=1 bus=1002953556.3.1.4 model=2 kv=0.22 kw=0.18026826484018263 pf=0.92 conn=delta status=variable vmaxpu=1.5 vminpu=0.92 daily=RES1_2
New load.bt64778-2 phases=1 bus=1002953556.3.1.4 model=3 kv=0.22 kw=0.18026826484018263 pf=0.92 conn=delta status=variable vmaxpu=1.5 vminpu=0.92 daily=RES1_2
New load.bt65338-1 phases=1 bus=1003265238.1.2.4 model=2 kv=0.22 kw=0.18085673515981734 pf=0.92 conn=delta status=variable vmaxpu=1.5 vminpu=0.92 daily=RES1_2
New load.bt65338-2 phases=1 bus=1003265238.1.2.4 model=3 kv=0.22 kw=0.18085673515981734 pf=0.92 conn=delta status=variable vmaxpu=1.5 vminpu=0.92 daily=RES1_2
New load.bt69268-1 phases=1 bus=1002953332.2.3.4 model=2 kv=0.22 kw=0.18220091324200915 pf=0.92 conn=delta status=variable vmaxpu=1.5 vminpu=0.92 daily=RES1_2
New load.bt69268-2 phases=1 bus=1002953332.2.3.4 model=3 kv=0.22 kw=0.18220091324200915 pf=0.92 conn=delta status=variable vmaxpu=1.5 vminpu=0.92 daily=RES1_2
New load.bt69730-1 phases=1 bus=1002904297.1.2.4 model=2 kv=0.22 kw=0.18065011415525112 pf=0.92 conn=delta status=variable vmaxpu=1.5 vminpu=0.92 daily=RES1_2
New load.bt69730-2 phases=1 bus=1002904297.1.2.4 model=3 kv=0.22 kw=0.18065011415525112 pf=0.92 conn=delta status=variable vmaxpu=1.5 vminpu=0.92 daily=RES1_2
New load.bt70748-1 phases=1 bus=1002904451.1.2.4 model=2 kv=0.22 kw=0.09423515981735162 pf=0.92 conn=delta status=variable vmaxpu=1.5 vminpu=0.92 daily=RES1_2
New load.bt70748-2 phases=1 bus=1002904451.1.2.4 model=3 kv=0.22 kw=0.09423515981735162 pf=0.92 conn=delta status=variable vmaxpu=1.5 vminpu=0.92 daily=RES1_2
New load.bt71909-1 phases=1 bus=1002964014.2.3.4 model=2 kv=0.22 kw=0.16595776255707761 pf=0.92 conn=delta status=variable vmaxpu=1.5 vminpu=0.92 daily=RES1_2
New load.bt71909-2 phases=1 bus=1002964014.2.3.4 model=3 kv=0.22 kw=0.16595776255707761 pf=0.92 conn=delta status=variable vmaxpu=1.5 vminpu=0.92 daily=RES1_2
New load.bt72821-1 phases=1 bus=1002882366.1.2.4 model=2 kv=0.22 kw=0.10332933789954338 pf=0.92 conn=delta status=variable vmaxpu=1.5 vminpu=0.92 daily=RES1_2
New load.bt72821-2 phases=1 bus=1002882366.1.2.4 model=3 kv=0.22 kw=0.10332933789954338 pf=0.92 conn=delta status=variable vmaxpu=1.5 vminpu=0.92 daily=RES1_2
New load.bt73227-1 phases=1 bus=1002870445.2.3.4 model=2 kv=0.22 kw=0.16657876712328767 pf=0.92 conn=delta status=variable vmaxpu=1.5 vminpu=0.92 daily=RES1_2
New load.bt73227-2 phases=1 bus=1002870445.2.3.4 model=3 kv=0.22 kw=0.16657876712328767 pf=0.92 conn=delta status=variable vmaxpu=1.5 vminpu=0.92 daily=RES1_2
New load.bt73270-1 phases=1 bus=1002914643.2.3.4 model=2 kv=0.22 kw=0.17537214611872148 pf=0.92 conn=delta status=variable vmaxpu=1.5 vminpu=0.92 daily=RES1_2
New load.bt73270-2 phases=1 bus=1002914643.2.3.4 model=3 kv=0.22 kw=0.17537214611872148 pf=0.92 conn=delta status=variable vmaxpu=1.5 vminpu=0.92 daily=RES1_2
New load.bt75100-1 phases=3 bus=1002882422.1.2.3.4 model=2 kv=0.22 kw=0.1620724885844749 pf=0.92 conn=delta status=variable vmaxpu=1.5 vminpu=0.92 daily=RES1_2
New load.bt75100-2 phases=3 bus=1002882422.1.2.3.4 model=3 kv=0.22 kw=0.1620724885844749 pf=0.92 conn=delta status=variable vmaxpu=1.5 vminpu=0.92 daily=RES1_2
New load.bt75651-1 phases=1 bus=1002953542.1.2.4 model=2 kv=0.22 kw=0.16885445205479452 pf=0.92 conn=delta status=variable vmaxpu=1.5 vminpu=0.92 daily=RES1_2
New load.bt75651-2 phases=1 bus=1002953542.1.2.4 model=3 kv=0.22 kw=0.16885445205479452 pf=0.92 conn=delta status=variable vmaxpu=1.5 vminpu=0.92 daily=RES1_2
New load.bt77753-1 phases=1 bus=1002953367.2.3.4 model=2 kv=0.22 kw=0.12398630136986302 pf=0.92 conn=delta status=variable vmaxpu=1.5 vminpu=0.92 daily=COM1_5
New load.bt77753-2 phases=1 bus=1002953367.2.3.4 model=3 kv=0.22 kw=0.12398630136986302 pf=0.92 conn=delta status=variable vmaxpu=1.5 vminpu=0.92 daily=COM1_5
New load.bt77916-1 phases=1 bus=1003265266.2.3.4 model=2 kv=0.22 kw=0.17121803652968037 pf=0.92 conn=delta status=variable vmaxpu=1.5 vminpu=0.92 daily=RES1_2
New load.bt77916-2 phases=1 bus=1003265266.2.3.4 model=3 kv=0.22 kw=0.17121803652968037 pf=0.92 conn=delta status=variable vmaxpu=1.5 vminpu=0.92 daily=RES1_2
New load.bt79821-1 phases=1 bus=1002882352.3.1.4 model=2 kv=0.22 kw=0.1424982876712329 pf=0.92 conn=delta status=variable vmaxpu=1.5 vminpu=0.92 daily=RES1_2
New load.bt79821-2 phases=1 bus=1002882352.3.1.4 model=3 kv=0.22 kw=0.1424982876712329 pf=0.92 conn=delta status=variable vmaxpu=1.5 vminpu=0.92 daily=RES1_2
New load.bt86254-1 phases=1 bus=1002882296.1.2.4 model=2 kv=0.22 kw=0.15606221461187214 pf=0.92 conn=delta status=variable vmaxpu=1.5 vminpu=0.92 daily=RES1_2
New load.bt86254-2 phases=1 bus=1002882296.1.2.4 model=3 kv=0.22 kw=0.15606221461187214 pf=0.92 conn=delta status=variable vmaxpu=1.5 vminpu=0.92 daily=RES1_2
New load.bt86271-1 phases=1 bus=1002904304.1.2.4 model=2 kv=0.22 kw=0.15503253424657534 pf=0.92 conn=delta status=variable vmaxpu=1.5 vminpu=0.92 daily=RES1_2
New load.bt86271-2 phases=1 bus=1002904304.1.2.4 model=3 kv=0.22 kw=0.15503253424657534 pf=0.92 conn=delta status=variable vmaxpu=1.5 vminpu=0.92 daily=RES1_2
New load.bt91378-1 phases=1 bus=1002953339.3.1.4 model=2 kv=0.22 kw=0.13636472602739727 pf=0.92 conn=delta status=variable vmaxpu=1.5 vminpu=0.92 daily=RES1_2
New load.bt91378-2 phases=1 bus=1002953339.3.1.4 model=3 kv=0.22 kw=0.13636472602739727 pf=0.92 conn=delta status=variable vmaxpu=1.5 vminpu=0.92 daily=RES1_2
New load.bt92084-1 phases=1 bus=1002964035.2.3.4 model=2 kv=0.22 kw=0.15248230593607306 pf=0.92 conn=delta status=variable vmaxpu=1.5 vminpu=0.92 daily=COM1_5
New load.bt92084-2 phases=1 bus=1002964035.2.3.4 model=3 kv=0.22 kw=0.15248230593607306 pf=0.92 conn=delta status=variable vmaxpu=1.5 vminpu=0.92 daily=COM1_5
New load.bt92472-1 phases=3 bus=1002953304.1.2.3.4 model=2 kv=0.22 kw=0.1434611872146119 pf=0.92 conn=delta status=variable vmaxpu=1.5 vminpu=0.92 daily=IND1_6
New load.bt92472-2 phases=3 bus=1002953304.1.2.3.4 model=3 kv=0.22 kw=0.1434611872146119 pf=0.92 conn=delta status=variable vmaxpu=1.5 vminpu=0.92 daily=IND1_6
New load.bt93557-1 phases=1 bus=1003265315.1.2.4 model=2 kv=0.22 kw=0.11532305936073058 pf=0.92 conn=delta status=variable vmaxpu=1.5 vminpu=0.92 daily=RES1_2
New load.bt93557-2 phases=1 bus=1003265315.1.2.4 model=3 kv=0.22 kw=0.11532305936073058 pf=0.92 conn=delta status=variable vmaxpu=1.5 vminpu=0.92 daily=RES1_2
New load.bt94344-1 phases=1 bus=1002870382.2.3.4 model=2 kv=0.22 kw=0.10339098173515981 pf=0.92 conn=delta status=variable vmaxpu=1.5 vminpu=0.92 daily=RES1_2
New load.bt94344-2 phases=1 bus=1002870382.2.3.4 model=3 kv=0.22 kw=0.10339098173515981 pf=0.92 conn=delta status=variable vmaxpu=1.5 vminpu=0.92 daily=RES1_2
New load.bt94367-1 phases=1 bus=1005057651.1.2.4 model=2 kv=0.22 kw=0.15542408675799085 pf=0.92 conn=delta status=variable vmaxpu=1.5 vminpu=0.92 daily=RES1_2
New load.bt94367-2 phases=1 bus=1005057651.1.2.4 model=3 kv=0.22 kw=0.15542408675799085 pf=0.92 conn=delta status=variable vmaxpu=1.5 vminpu=0.92 daily=RES1_2
New load.bt96459-1 phases=1 bus=1003265245.3.1.4 model=2 kv=0.22 kw=0.12552054794520548 pf=0.92 conn=delta status=variable vmaxpu=1.5 vminpu=0.92 daily=RES1_2
New load.bt96459-2 phases=1 bus=1003265245.3.1.4 model=3 kv=0.22 kw=0.12552054794520548 pf=0.92 conn=delta status=variable vmaxpu=1.5 vminpu=0.92 daily=RES1_2
New load.bt98973-1 phases=1 bus=1002904255.1.2.4 model=2 kv=0.22 kw=0.14532876712328766 pf=0.92 conn=delta status=variable vmaxpu=1.5 vminpu=0.92 daily=RES1_2
New load.bt98973-2 phases=1 bus=1002904255.1.2.4 model=3 kv=0.22 kw=0.14532876712328766 pf=0.92 conn=delta status=variable vmaxpu=1.5 vminpu=0.92 daily=RES1_2
New load.bt104296-1 phases=1 bus=1002953388.2.3.4 model=2 kv=0.22 kw=0.13458618721461188 pf=0.92 conn=delta status=variable vmaxpu=1.5 vminpu=0.92 daily=RES1_2
New load.bt104296-2 phases=1 bus=1002953388.2.3.4 model=3 kv=0.22 kw=0.13458618721461188 pf=0.92 conn=delta status=variable vmaxpu=1.5 vminpu=0.92 daily=RES1_2
New load.bt105791-1 phases=1 bus=1002882359.1.2.4 model=2 kv=0.22 kw=0.14851484018264838 pf=0.92 conn=delta status=variable vmaxpu=1.5 vminpu=0.92 daily=RES1_2
New load.bt105791-2 phases=1 bus=1002882359.1.2.4 model=3 kv=0.22 kw=0.14851484018264838 pf=0.92 conn=delta status=variable vmaxpu=1.5 vminpu=0.92 daily=RES1_2
New load.bt106213-1 phases=1 bus=1002953493.1.2.4 model=2 kv=0.22 kw=0.15515639269406392 pf=0.92 conn=delta status=variable vmaxpu=1.5 vminpu=0.92 daily=RES1_2
New load.bt106213-2 phases=1 bus=1002953493.1.2.4 model=3 kv=0.22 kw=0.15515639269406392 pf=0.92 conn=delta status=variable vmaxpu=1.5 vminpu=0.92 daily=RES1_2
New load.bt117173-1 phases=1 bus=1002934509.3.1.4 model=2 kv=0.22 kw=0.1332494292237443 pf=0.92 conn=delta status=variable vmaxpu=1.5 vminpu=0.92 daily=RES1_2
New load.bt117173-2 phases=1 bus=1002934509.3.1.4 model=3 kv=0.22 kw=0.1332494292237443 pf=0.92 conn=delta status=variable vmaxpu=1.5 vminpu=0.92 daily=RES1_2
New load.bt117702-1 phases=1 bus=1002870480.2.3.4 model=2 kv=0.22 kw=0.14266780821917807 pf=0.92 conn=delta status=variable vmaxpu=1.5 vminpu=0.92 daily=RES1_2
New load.bt117702-2 phases=1 bus=1002870480.2.3.4 model=3 kv=0.22 kw=0.14266780821917807 pf=0.92 conn=delta status=variable vmaxpu=1.5 vminpu=0.92 daily=RES1_2
New load.bt121479-1 phases=3 bus=1002904248.1.2.3.4 model=2 kv=0.22 kw=0.1263013698630137 pf=0.92 conn=delta status=variable vmaxpu=1.5 vminpu=0.92 daily=RES1_2
New load.bt121479-2 phases=3 bus=1002904248.1.2.3.4 model=3 kv=0.22 kw=0.1263013698630137 pf=0.92 conn=delta status=variable vmaxpu=1.5 vminpu=0.92 daily=RES1_2
New load.bt127870-1 phases=1 bus=1002870459.2.3.4 model=2 kv=0.22 kw=0.12570091324200913 pf=0.92 conn=delta status=variable vmaxpu=1.5 vminpu=0.92 daily=RES1_2
New load.bt127870-2 phases=1 bus=1002870459.2.3.4 model=3 kv=0.22 kw=0.12570091324200913 pf=0.92 conn=delta status=variable vmaxpu=1.5 vminpu=0.92 daily=RES1_2
New load.bt128224-1 phases=1 bus=1003265273.2.3.4 model=2 kv=0.22 kw=0.11631221461187215 pf=0.92 conn=delta status=variable vmaxpu=1.5 vminpu=0.92 daily=RES1_2
New load.bt128224-2 phases=1 bus=1003265273.2.3.4 model=3 kv=0.22 kw=0.11631221461187215 pf=0.92 conn=delta status=variable vmaxpu=1.5 vminpu=0.92 daily=RES1_2
New load.bt130108-1 phases=1 bus=1002882380.2.3.4 model=2 kv=0.22 kw=0.0833310502283105 pf=0.92 conn=delta status=variable vmaxpu=1.5 vminpu=0.92 daily=RES1_2
New load.bt130108-2 phases=1 bus=1002882380.2.3.4 model=3 kv=0.22 kw=0.0833310502283105 pf=0.92 conn=delta status=variable vmaxpu=1.5 vminpu=0.92 daily=RES1_2
New load.bt132630-1 phases=1 bus=1002953262.1.2.4 model=2 kv=0.22 kw=0.0547425799086758 pf=0.92 conn=delta status=variable vmaxpu=1.5 vminpu=0.92 daily=RES1_2
New load.bt132630-2 phases=1 bus=1002953262.1.2.4 model=3 kv=0.22 kw=0.0547425799086758 pf=0.92 conn=delta status=variable vmaxpu=1.5 vminpu=0.92 daily=RES1_2
New load.bt134018-1 phases=1 bus=1002934502.1.2.4 model=2 kv=0.22 kw=0.10828824200913241 pf=0.92 conn=delta status=variable vmaxpu=1.5 vminpu=0.92 daily=RES1_2
New load.bt134018-2 phases=1 bus=1002934502.1.2.4 model=3 kv=0.22 kw=0.10828824200913241 pf=0.92 conn=delta status=variable vmaxpu=1.5 vminpu=0.92 daily=RES1_2
New load.bt138758-1 phases=1 bus=1002953381.1.2.4 model=2 kv=0.22 kw=0.12461358447488585 pf=0.92 conn=delta status=variable vmaxpu=1.5 vminpu=0.92 daily=RES1_2
New load.bt138758-2 phases=1 bus=1002953381.1.2.4 model=3 kv=0.22 kw=0.12461358447488585 pf=0.92 conn=delta status=variable vmaxpu=1.5 vminpu=0.92 daily=RES1_2
New load.bt142463-1 phases=1 bus=1002870389.1.2.4 model=2 kv=0.22 kw=0.10021803652968038 pf=0.92 conn=delta status=variable vmaxpu=1.5 vminpu=0.92 daily=RES1_2
New load.bt142463-2 phases=1 bus=1002870389.1.2.4 model=3 kv=0.22 kw=0.10021803652968038 pf=0.92 conn=delta status=variable vmaxpu=1.5 vminpu=0.92 daily=RES1_2
New load.bt145115-1 phases=1 bus=1002914657.2.3.4 model=2 kv=0.22 kw=0.1035131278538813 pf=0.92 conn=delta status=variable vmaxpu=1.5 vminpu=0.92 daily=RES1_2
New load.bt145115-2 phases=1 bus=1002914657.2.3.4 model=3 kv=0.22 kw=0.1035131278538813 pf=0.92 conn=delta status=variable vmaxpu=1.5 vminpu=0.92 daily=RES1_2
New load.bt146362-1 phases=1 bus=1002870354.3.1.4 model=2 kv=0.22 kw=0.1071324200913242 pf=0.92 conn=delta status=variable vmaxpu=1.5 vminpu=0.92 daily=RES1_2
New load.bt146362-2 phases=1 bus=1002870354.3.1.4 model=3 kv=0.22 kw=0.1071324200913242 pf=0.92 conn=delta status=variable vmaxpu=1.5 vminpu=0.92 daily=RES1_2
New load.bt147123-1 phases=1 bus=1002963993.1.2.4 model=2 kv=0.22 kw=0.13050228310502285 pf=0.92 conn=delta status=variable vmaxpu=1.5 vminpu=0.92 daily=RES1_2
New load.bt147123-2 phases=1 bus=1002963993.1.2.4 model=3 kv=0.22 kw=0.13050228310502285 pf=0.92 conn=delta status=variable vmaxpu=1.5 vminpu=0.92 daily=RES1_2
New load.bt148425-1 phases=3 bus=1002882422.1.2.3.4 model=2 kv=0.22 kw=0.1157277397260274 pf=0.92 conn=delta status=variable vmaxpu=1.5 vminpu=0.92 daily=RES1_2
New load.bt148425-2 phases=3 bus=1002882422.1.2.3.4 model=3 kv=0.22 kw=0.1157277397260274 pf=0.92 conn=delta status=variable vmaxpu=1.5 vminpu=0.92 daily=RES1_2
New load.bt156210-1 phases=1 bus=1002953521.3.4 model=2 kv=0.127 kw=0.11673687214611873 pf=0.92 conn=wye status=variable vmaxpu=1.5 vminpu=0.92 daily=RES1_2
New load.bt156210-2 phases=1 bus=1002953521.3.4 model=3 kv=0.127 kw=0.11673687214611873 pf=0.92 conn=wye status=variable vmaxpu=1.5 vminpu=0.92 daily=RES1_2
New load.bt156502-1 phases=1 bus=1002953402.2.3.4 model=2 kv=0.22 kw=0.10974714611872147 pf=0.92 conn=delta status=variable vmaxpu=1.5 vminpu=0.92 daily=RES1_2
New load.bt156502-2 phases=1 bus=1002953402.2.3.4 model=3 kv=0.22 kw=0.10974714611872147 pf=0.92 conn=delta status=variable vmaxpu=1.5 vminpu=0.92 daily=RES1_2
New load.bt160944-1 phases=1 bus=1002953339.3.1.4 model=2 kv=0.22 kw=0.11399429223744291 pf=0.92 conn=delta status=variable vmaxpu=1.5 vminpu=0.92 daily=RES1_2
New load.bt160944-2 phases=1 bus=1002953339.3.1.4 model=3 kv=0.22 kw=0.11399429223744291 pf=0.92 conn=delta status=variable vmaxpu=1.5 vminpu=0.92 daily=RES1_2
New load.bt161502-1 phases=3 bus=1002882422.1.2.3.4 model=2 kv=0.22 kw=0.1142648401826484 pf=0.92 conn=delta status=variable vmaxpu=1.5 vminpu=0.92 daily=RES1_2
New load.bt161502-2 phases=3 bus=1002882422.1.2.3.4 model=3 kv=0.22 kw=0.1142648401826484 pf=0.92 conn=delta status=variable vmaxpu=1.5 vminpu=0.92 daily=RES1_2
New load.bt162801-1 phases=1 bus=1002870522.1.2.4 model=2 kv=0.22 kw=0.12022831050228308 pf=0.92 conn=delta status=variable vmaxpu=1.5 vminpu=0.92 daily=RES1_2
New load.bt162801-2 phases=1 bus=1002870522.1.2.4 model=3 kv=0.22 kw=0.12022831050228308 pf=0.92 conn=delta status=variable vmaxpu=1.5 vminpu=0.92 daily=RES1_2
New load.bt163203-1 phases=1 bus=1002870347.3.1.4 model=2 kv=0.22 kw=0.11725114155251143 pf=0.92 conn=delta status=variable vmaxpu=1.5 vminpu=0.92 daily=RES1_2
New load.bt163203-2 phases=1 bus=1002870347.3.1.4 model=3 kv=0.22 kw=0.11725114155251143 pf=0.92 conn=delta status=variable vmaxpu=1.5 vminpu=0.92 daily=RES1_2
New load.bt165076-1 phases=1 bus=1002953619.3.1.4 model=2 kv=0.22 kw=0.10749086757990867 pf=0.92 conn=delta status=variable vmaxpu=1.5 vminpu=0.92 daily=RES1_2
New load.bt165076-2 phases=1 bus=1002953619.3.1.4 model=3 kv=0.22 kw=0.10749086757990867 pf=0.92 conn=delta status=variable vmaxpu=1.5 vminpu=0.92 daily=RES1_2
New load.bt181584-1 phases=1 bus=1002934516.2.3.4 model=2 kv=0.22 kw=0.07111415525114155 pf=0.92 conn=delta status=variable vmaxpu=1.5 vminpu=0.92 daily=RES1_2
New load.bt181584-2 phases=1 bus=1002934516.2.3.4 model=3 kv=0.22 kw=0.07111415525114155 pf=0.92 conn=delta status=variable vmaxpu=1.5 vminpu=0.92 daily=RES1_2
New load.bt189862-1 phases=1 bus=1002870438.2.3.4 model=2 kv=0.22 kw=0.12087785388127853 pf=0.92 conn=delta status=variable vmaxpu=1.5 vminpu=0.92 daily=RES1_2
New load.bt189862-2 phases=1 bus=1002870438.2.3.4 model=3 kv=0.22 kw=0.12087785388127853 pf=0.92 conn=delta status=variable vmaxpu=1.5 vminpu=0.92 daily=RES1_2
New load.bt199514-1 phases=3 bus=1002882422.1.2.3.4 model=2 kv=0.22 kw=0.10709360730593606 pf=0.92 conn=delta status=variable vmaxpu=1.5 vminpu=0.92 daily=RES1_2
New load.bt199514-2 phases=3 bus=1002882422.1.2.3.4 model=3 kv=0.22 kw=0.10709360730593606 pf=0.92 conn=delta status=variable vmaxpu=1.5 vminpu=0.92 daily=RES1_2
New load.bt200713-1 phases=1 bus=1002904311.1.2.4 model=2 kv=0.22 kw=0.10033675799086757 pf=0.92 conn=delta status=variable vmaxpu=1.5 vminpu=0.92 daily=RES1_2
New load.bt200713-2 phases=1 bus=1002904311.1.2.4 model=3 kv=0.22 kw=0.10033675799086757 pf=0.92 conn=delta status=variable vmaxpu=1.5 vminpu=0.92 daily=RES1_2
New load.bt202840-1 phases=1 bus=1002870515.1.2.4 model=2 kv=0.22 kw=0.08185502283105024 pf=0.92 conn=delta status=variable vmaxpu=1.5 vminpu=0.92 daily=RES1_2
New load.bt202840-2 phases=1 bus=1002870515.1.2.4 model=3 kv=0.22 kw=0.08185502283105024 pf=0.92 conn=delta status=variable vmaxpu=1.5 vminpu=0.92 daily=RES1_2
New load.bt204672-1 phases=1 bus=1002953346.1.2.4 model=2 kv=0.22 kw=0.0817768264840183 pf=0.92 conn=delta status=variable vmaxpu=1.5 vminpu=0.92 daily=RES1_2
New load.bt204672-2 phases=1 bus=1002953346.1.2.4 model=3 kv=0.22 kw=0.0817768264840183 pf=0.92 conn=delta status=variable vmaxpu=1.5 vminpu=0.92 daily=RES1_2
New load.bt204732-1 phases=3 bus=1002882422.1.2.3.4 model=2 kv=0.22 kw=0.09569463470319634 pf=0.92 conn=delta status=variable vmaxpu=1.5 vminpu=0.92 daily=RES1_2
New load.bt204732-2 phases=3 bus=1002882422.1.2.3.4 model=3 kv=0.22 kw=0.09569463470319634 pf=0.92 conn=delta status=variable vmaxpu=1.5 vminpu=0.92 daily=RES1_2
New load.bt206057-1 phases=1 bus=1002904241.1.2.4 model=2 kv=0.22 kw=0.0752277397260274 pf=0.92 conn=delta status=variable vmaxpu=1.5 vminpu=0.92 daily=RES1_2
New load.bt206057-2 phases=1 bus=1002904241.1.2.4 model=3 kv=0.22 kw=0.0752277397260274 pf=0.92 conn=delta status=variable vmaxpu=1.5 vminpu=0.92 daily=RES1_2
New load.bt209862-1 phases=1 bus=1002953486.1.2.4 model=2 kv=0.22 kw=0.09035216894977169 pf=0.92 conn=delta status=variable vmaxpu=1.5 vminpu=0.92 daily=RES1_2
New load.bt209862-2 phases=1 bus=1002953486.1.2.4 model=3 kv=0.22 kw=0.09035216894977169 pf=0.92 conn=delta status=variable vmaxpu=1.5 vminpu=0.92 daily=RES1_2
New load.bt227650-1 phases=1 bus=1003265322.1.2.4 model=2 kv=0.22 kw=0.03807762557077625 pf=0.92 conn=delta status=variable vmaxpu=1.5 vminpu=0.92 daily=RES1_2
New load.bt227650-2 phases=1 bus=1003265322.1.2.4 model=3 kv=0.22 kw=0.03807762557077625 pf=0.92 conn=delta status=variable vmaxpu=1.5 vminpu=0.92 daily=RES1_2
New load.bt229069-1 phases=1 bus=1002882324.2.3.4 model=2 kv=0.22 kw=0.08272945205479453 pf=0.92 conn=delta status=variable vmaxpu=1.5 vminpu=0.92 daily=RES1_2
New load.bt229069-2 phases=1 bus=1002882324.2.3.4 model=3 kv=0.22 kw=0.08272945205479453 pf=0.92 conn=delta status=variable vmaxpu=1.5 vminpu=0.92 daily=RES1_2
New load.bt231042-1 phases=3 bus=1002882422.1.2.3.4 model=2 kv=0.22 kw=0.062433219178082186 pf=0.92 conn=delta status=variable vmaxpu=1.5 vminpu=0.92 daily=RES1_2
New load.bt231042-2 phases=3 bus=1002882422.1.2.3.4 model=3 kv=0.22 kw=0.062433219178082186 pf=0.92 conn=delta status=variable vmaxpu=1.5 vminpu=0.92 daily=RES1_2
New load.bt232590-1 phases=1 bus=1002953388.2.3.4 model=2 kv=0.22 kw=0.07137728310502281 pf=0.92 conn=delta status=variable vmaxpu=1.5 vminpu=0.92 daily=RES1_2
New load.bt232590-2 phases=1 bus=1002953388.2.3.4 model=3 kv=0.22 kw=0.07137728310502281 pf=0.92 conn=delta status=variable vmaxpu=1.5 vminpu=0.92 daily=RES1_2
New load.bt234227-1 phases=1 bus=1002870396.1.2.4 model=2 kv=0.22 kw=0.075837899543379 pf=0.92 conn=delta status=variable vmaxpu=1.5 vminpu=0.92 daily=RES1_2
New load.bt234227-2 phases=1 bus=1002870396.1.2.4 model=3 kv=0.22 kw=0.075837899543379 pf=0.92 conn=delta status=variable vmaxpu=1.5 vminpu=0.92 daily=RES1_2
New load.bt234989-1 phases=1 bus=1002870375.2.3.4 model=2 kv=0.22 kw=0.08351198630136987 pf=0.92 conn=delta status=variable vmaxpu=1.5 vminpu=0.92 daily=RES1_2
New load.bt234989-2 phases=1 bus=1002870375.2.3.4 model=3 kv=0.22 kw=0.08351198630136987 pf=0.92 conn=delta status=variable vmaxpu=1.5 vminpu=0.92 daily=RES1_2
New load.bt238594-1 phases=1 bus=1003265259.2.3.4 model=2 kv=0.22 kw=0.07595776255707763 pf=0.92 conn=delta status=variable vmaxpu=1.5 vminpu=0.92 daily=RES1_2
New load.bt238594-2 phases=1 bus=1003265259.2.3.4 model=3 kv=0.22 kw=0.07595776255707763 pf=0.92 conn=delta status=variable vmaxpu=1.5 vminpu=0.92 daily=RES1_2
New load.bt239209-1 phases=1 bus=1003258056.1.2.4 model=2 kv=0.22 kw=0.0767511415525114 pf=0.92 conn=delta status=variable vmaxpu=1.5 vminpu=0.92 daily=RES1_2
New load.bt239209-2 phases=1 bus=1003258056.1.2.4 model=3 kv=0.22 kw=0.0767511415525114 pf=0.92 conn=delta status=variable vmaxpu=1.5 vminpu=0.92 daily=RES1_2
New load.bt243162-1 phases=1 bus=1002914636.2.3.4 model=2 kv=0.22 kw=0.09078881278538813 pf=0.92 conn=delta status=variable vmaxpu=1.5 vminpu=0.92 daily=COM1_5
New load.bt243162-2 phases=1 bus=1002914636.2.3.4 model=3 kv=0.22 kw=0.09078881278538813 pf=0.92 conn=delta status=variable vmaxpu=1.5 vminpu=0.92 daily=COM1_5
New load.bt248089-1 phases=1 bus=1002882331.2.3.4 model=2 kv=0.22 kw=0.057030821917808214 pf=0.92 conn=delta status=variable vmaxpu=1.5 vminpu=0.92 daily=RES1_2
New load.bt248089-2 phases=1 bus=1002882331.2.3.4 model=3 kv=0.22 kw=0.057030821917808214 pf=0.92 conn=delta status=variable vmaxpu=1.5 vminpu=0.92 daily=RES1_2
New load.bt251757-1 phases=3 bus=1002926732.1.2.3.4 model=2 kv=0.22 kw=0.07778481735159817 pf=0.92 conn=delta status=variable vmaxpu=1.5 vminpu=0.92 daily=COM1_5
New load.bt251757-2 phases=3 bus=1002926732.1.2.3.4 model=3 kv=0.22 kw=0.07778481735159817 pf=0.92 conn=delta status=variable vmaxpu=1.5 vminpu=0.92 daily=COM1_5
New load.bt253464-1 phases=1 bus=1002953360.3.4 model=2 kv=0.127 kw=0.06287842465753424 pf=0.92 conn=wye status=variable vmaxpu=1.5 vminpu=0.92 daily=RES1_2
New load.bt253464-2 phases=1 bus=1002953360.3.4 model=3 kv=0.127 kw=0.06287842465753424 pf=0.92 conn=wye status=variable vmaxpu=1.5 vminpu=0.92 daily=RES1_2
New load.bt259125-1 phases=1 bus=1002882303.1.2.4 model=2 kv=0.22 kw=0.09254166666666666 pf=0.92 conn=delta status=variable vmaxpu=1.5 vminpu=0.92 daily=RES1_2
New load.bt259125-2 phases=1 bus=1002882303.1.2.4 model=3 kv=0.22 kw=0.09254166666666666 pf=0.92 conn=delta status=variable vmaxpu=1.5 vminpu=0.92 daily=RES1_2
New load.bt287986-1 phases=1 bus=1002882345.2.3.4 model=2 kv=0.22 kw=0.040107305936073055 pf=0.92 conn=delta status=variable vmaxpu=1.5 vminpu=0.92 daily=RES1_2
New load.bt287986-2 phases=1 bus=1002882345.2.3.4 model=3 kv=0.22 kw=0.040107305936073055 pf=0.92 conn=delta status=variable vmaxpu=1.5 vminpu=0.92 daily=RES1_2
New load.bt288508-1 phases=1 bus=1002882373.2.3.4 model=2 kv=0.22 kw=0.0646158675799087 pf=0.92 conn=delta status=variable vmaxpu=1.5 vminpu=0.92 daily=COM1_5
New load.bt288508-2 phases=1 bus=1002882373.2.3.4 model=3 kv=0.22 kw=0.0646158675799087 pf=0.92 conn=delta status=variable vmaxpu=1.5 vminpu=0.92 daily=COM1_5
New load.bt292223-1 phases=1 bus=1002904269.3.4 model=2 kv=0.127 kw=0.07679908675799088 pf=0.92 conn=wye status=variable vmaxpu=1.5 vminpu=0.92 daily=RES1_2
New load.bt292223-2 phases=1 bus=1002904269.3.4 model=3 kv=0.127 kw=0.07679908675799088 pf=0.92 conn=wye status=variable vmaxpu=1.5 vminpu=0.92 daily=RES1_2
New load.bt294855-1 phases=1 bus=1002870487.2.3.4 model=2 kv=0.22 kw=0.011890981735159819 pf=0.92 conn=delta status=variable vmaxpu=1.5 vminpu=0.92 daily=RES1_2
New load.bt294855-2 phases=1 bus=1002870487.2.3.4 model=3 kv=0.22 kw=0.011890981735159819 pf=0.92 conn=delta status=variable vmaxpu=1.5 vminpu=0.92 daily=RES1_2
New load.bt297813-1 phases=1 bus=1002953437.2.3.4 model=2 kv=0.22 kw=0.055034817351598174 pf=0.92 conn=delta status=variable vmaxpu=1.5 vminpu=0.92 daily=RES1_2
New load.bt297813-2 phases=1 bus=1002953437.2.3.4 model=3 kv=0.22 kw=0.055034817351598174 pf=0.92 conn=delta status=variable vmaxpu=1.5 vminpu=0.92 daily=RES1_2
New load.bt298107-1 phases=1 bus=1002870417.3.1.4 model=2 kv=0.22 kw=0.05399999999999999 pf=0.92 conn=delta status=variable vmaxpu=1.5 vminpu=0.92 daily=RES1_2
New load.bt298107-2 phases=1 bus=1002870417.3.1.4 model=3 kv=0.22 kw=0.05399999999999999 pf=0.92 conn=delta status=variable vmaxpu=1.5 vminpu=0.92 daily=RES1_2
New load.bt302116-1 phases=3 bus=1002964056.1.2.3.4 model=2 kv=0.22 kw=0.085300799086758 pf=0.92 conn=delta status=variable vmaxpu=1.5 vminpu=0.92 daily=COM1_5
New load.bt302116-2 phases=3 bus=1002964056.1.2.3.4 model=3 kv=0.22 kw=0.085300799086758 pf=0.92 conn=delta status=variable vmaxpu=1.5 vminpu=0.92 daily=COM1_5
New load.bt303719-1 phases=1 bus=1002870501.1.2.4 model=2 kv=0.22 kw=0.060851027397260254 pf=0.92 conn=delta status=variable vmaxpu=1.5 vminpu=0.92 daily=RES1_2
New load.bt303719-2 phases=1 bus=1002870501.1.2.4 model=3 kv=0.22 kw=0.060851027397260254 pf=0.92 conn=delta status=variable vmaxpu=1.5 vminpu=0.92 daily=RES1_2