New load.mt4711-1 phases=3 bus=150345506.1.2.3.4 model=2 kv=13.8 kw=72.8444058219178 pf=0.92 conn=delta status=variable vmaxpu=1.5 vminpu=0.92 daily=MT3_1
New load.mt4711-2 phases=3 bus=150345506.1.2.3.4 model=3 kv=13.8 kw=72.8444058219178 pf=0.92 conn=delta status=variable vmaxpu=1.5 vminpu=0.92 daily=MT3_1

New load.mt4784-1 phases=3 bus=161100998.1.2.3.4 model=2 kv=13.8 kw=15.132246347031964 pf=0.92 conn=delta status=variable vmaxpu=1.5 vminpu=0.92 daily=MT2_1
New load.mt4784-2 phases=3 bus=161100998.1.2.3.4 model=3 kv=13.8 kw=15.132246347031964 pf=0.92 conn=delta status=variable vmaxpu=1.5 vminpu=0.92 daily=MT2_1

New load.mt21990-1 phases=3 bus=161100998.1.2.3.4 model=2 kv=13.8 kw=39.067191780821915 pf=0.92 conn=delta status=variable vmaxpu=1.5 vminpu=0.92 daily=MT4_1
New load.mt21990-2 phases=3 bus=161100998.1.2.3.4 model=3 kv=13.8 kw=39.067191780821915 pf=0.92 conn=delta status=variable vmaxpu=1.5 vminpu=0.92 daily=MT4_1

New load.mt22049-1 phases=3 bus=157682216.1.2.3.4 model=2 kv=13.8 kw=26.055022831050227 pf=0.92 conn=delta status=variable vmaxpu=1.5 vminpu=0.92 daily=MT3_1
New load.mt22049-2 phases=3 bus=157682216.1.2.3.4 model=3 kv=13.8 kw=26.055022831050227 pf=0.92 conn=delta status=variable vmaxpu=1.5 vminpu=0.92 daily=MT3_1

New load.mt22050-1 phases=3 bus=175676758.1.2.3.4 model=2 kv=13.8 kw=23.854377853881275 pf=0.92 conn=delta status=variable vmaxpu=1.5 vminpu=0.92 daily=MT2_1
New load.mt22050-2 phases=3 bus=175676758.1.2.3.4 model=3 kv=13.8 kw=23.854377853881275 pf=0.92 conn=delta status=variable vmaxpu=1.5 vminpu=0.92 daily=MT2_1

New load.mt22051-1 phases=3 bus=150780086.1.2.3.4 model=2 kv=13.8 kw=21.95570776255708 pf=0.92 conn=delta status=variable vmaxpu=1.5 vminpu=0.92 daily=MT3_1
New load.mt22051-2 phases=3 bus=150780086.1.2.3.4 model=3 kv=13.8 kw=21.95570776255708 pf=0.92 conn=delta status=variable vmaxpu=1.5 vminpu=0.92 daily=MT3_1

New load.mt22277-1 phases=3 bus=126316418.1.2.3.4 model=2 kv=13.8 kw=8.427260273972603 pf=0.92 conn=delta status=variable vmaxpu=1.5 vminpu=0.92 daily=MT3_1
New load.mt22277-2 phases=3 bus=126316418.1.2.3.4 model=3 kv=13.8 kw=8.427260273972603 pf=0.92 conn=delta status=variable vmaxpu=1.5 vminpu=0.92 daily=MT3_1

New load.mt22297-1 phases=3 bus=126317839.1.2.3.4 model=2 kv=13.8 kw=6.862442922374429 pf=0.92 conn=delta status=variable vmaxpu=1.5 vminpu=0.92 daily=MT1_1
New load.mt22297-2 phases=3 bus=126317839.1.2.3.4 model=3 kv=13.8 kw=6.862442922374429 pf=0.92 conn=delta status=variable vmaxpu=1.5 vminpu=0.92 daily=MT1_1

New load.mt22353-1 phases=3 bus=175161594.1.2.3.4 model=2 kv=13.8 kw=3.3820547945205477 pf=0.92 conn=delta status=variable vmaxpu=1.5 vminpu=0.92 daily=MT2_1
New load.mt22353-2 phases=3 bus=175161594.1.2.3.4 model=3 kv=13.8 kw=3.3820547945205477 pf=0.92 conn=delta status=variable vmaxpu=1.5 vminpu=0.92 daily=MT2_1

New load.mt22411-1 phases=3 bus=168356674.1.2.3.4 model=2 kv=13.8 kw=3.4116894977168952 pf=0.92 conn=delta status=variable vmaxpu=1.5 vminpu=0.92 daily=MT1_1
New load.mt22411-2 phases=3 bus=168356674.1.2.3.4 model=3 kv=13.8 kw=3.4116894977168952 pf=0.92 conn=delta status=variable vmaxpu=1.5 vminpu=0.92 daily=MT1_1

New load.mt22452-1 phases=3 bus=150346693.1.2.3.4 model=2 kv=13.8 kw=4.269086757990867 pf=0.92 conn=delta status=variable vmaxpu=1.5 vminpu=0.92 daily=MT3_1
New load.mt22452-2 phases=3 bus=150346693.1.2.3.4 model=3 kv=13.8 kw=4.269086757990867 pf=0.92 conn=delta status=variable vmaxpu=1.5 vminpu=0.92 daily=MT3_1

New load.mt22571-1 phases=3 bus=133936527.1.2.3.4 model=2 kv=13.8 kw=1.130319634703196 pf=0.92 conn=delta status=variable vmaxpu=1.5 vminpu=0.92 daily=MT1_1
New load.mt22571-2 phases=3 bus=133936527.1.2.3.4 model=3 kv=13.8 kw=1.130319634703196 pf=0.92 conn=delta status=variable vmaxpu=1.5 vminpu=0.92 daily=MT1_1

