New linecode.0_1_1_1 nphases=1 basefreq=60.0 units=km r1=0.15 x1=0.089 normamps=290.0
New linecode.0_1_1_2 nphases=2 basefreq=60.0 units=km r1=0.15 x1=0.089 normamps=290.0
New linecode.0_1_1_3 nphases=3 basefreq=60.0 units=km r1=0.15 x1=0.089 normamps=290.0
New linecode.0_1_1_4 nphases=4 basefreq=60.0 units=km r1=0.15 x1=0.089 normamps=290.0

New linecode.0_1_1 nphases=1 basefreq=60.0 units=km r1=0.15 x1=0.089 normamps=290.0
New linecode.0_1_2 nphases=2 basefreq=60.0 units=km r1=0.15 x1=0.089 normamps=290.0
New linecode.0_1_3 nphases=3 basefreq=60.0 units=km r1=0.15 x1=0.089 normamps=290.0
New linecode.0_1_4 nphases=4 basefreq=60.0 units=km r1=0.15 x1=0.089 normamps=290.0

New linecode.0_2_1 nphases=1 basefreq=60.0 units=km r1=0.15 x1=0.089 normamps=290.0
New linecode.0_2_2 nphases=2 basefreq=60.0 units=km r1=0.15 x1=0.089 normamps=290.0
New linecode.0_2_3 nphases=3 basefreq=60.0 units=km r1=0.15 x1=0.089 normamps=290.0
New linecode.0_2_4 nphases=4 basefreq=60.0 units=km r1=0.15 x1=0.089 normamps=290.0

New linecode.0_3_1 nphases=1 basefreq=60.0 units=km r1=0.15 x1=0.089 normamps=290.0
New linecode.0_3_2 nphases=2 basefreq=60.0 units=km r1=0.15 x1=0.089 normamps=290.0
New linecode.0_3_3 nphases=3 basefreq=60.0 units=km r1=0.15 x1=0.089 normamps=290.0
New linecode.0_3_4 nphases=4 basefreq=60.0 units=km r1=0.15 x1=0.089 normamps=290.0

New linecode.0_4_1 nphases=1 basefreq=60.0 units=km r1=0.15 x1=0.089 normamps=290.0
New linecode.0_4_2 nphases=2 basefreq=60.0 units=km r1=0.15 x1=0.089 normamps=290.0
New linecode.0_4_3 nphases=3 basefreq=60.0 units=km r1=0.15 x1=0.089 normamps=290.0
New linecode.0_4_4 nphases=4 basefreq=60.0 units=km r1=0.15 x1=0.089 normamps=290.0

New linecode.0_5_1 nphases=1 basefreq=60.0 units=km r1=0.15 x1=0.089 normamps=290.0
New linecode.0_5_2 nphases=2 basefreq=60.0 units=km r1=0.15 x1=0.089 normamps=290.0
New linecode.0_5_3 nphases=3 basefreq=60.0 units=km r1=0.15 x1=0.089 normamps=290.0
New linecode.0_5_4 nphases=4 basefreq=60.0 units=km r1=0.15 x1=0.089 normamps=290.0

New linecode.1061_1 nphases=1 basefreq=60.0 units=km r1=0.15 x1=0.089 normamps=290.0
New linecode.1061_2 nphases=2 basefreq=60.0 units=km r1=0.15 x1=0.089 normamps=290.0
New linecode.1061_3 nphases=3 basefreq=60.0 units=km r1=0.15 x1=0.089 normamps=290.0
New linecode.1061_4 nphases=4 basefreq=60.0 units=km r1=0.15 x1=0.089 normamps=290.0

New linecode.109_1 nphases=1 basefreq=60.0 units=km r1=0.15 x1=0.089 normamps=290.0
New linecode.109_2 nphases=2 basefreq=60.0 units=km r1=0.15 x1=0.089 normamps=290.0
New linecode.109_3 nphases=3 basefreq=60.0 units=km r1=0.15 x1=0.089 normamps=290.0
New linecode.109_4 nphases=4 basefreq=60.0 units=km r1=0.15 x1=0.089 normamps=290.0

New linecode.110_1 nphases=1 basefreq=60.0 units=km r1=0.15 x1=0.089 normamps=290.0
New linecode.110_2 nphases=2 basefreq=60.0 units=km r1=0.15 x1=0.089 normamps=290.0
New linecode.110_3 nphases=3 basefreq=60.0 units=km r1=0.15 x1=0.089 normamps=290.0
New linecode.110_4 nphases=4 basefreq=60.0 units=km r1=0.15 x1=0.089 normamps=290.0

New linecode.112_1 nphases=1 basefreq=60.0 units=km r1=0.15 x1=0.089 normamps=290.0
New linecode.112_2 nphases=2 basefreq=60.0 units=km r1=0.15 x1=0.089 normamps=290.0
New linecode.112_3 nphases=3 basefreq=60.0 units=km r1=0.15 x1=0.089 normamps=290.0
New linecode.112_4 nphases=4 basefreq=60.0 units=km r1=0.15 x1=0.089 normamps=290.0

New linecode.1129_1 nphases=1 basefreq=60.0 units=km r1=0.15 x1=0.089 normamps=290.0
New linecode.1129_2 nphases=2 basefreq=60.0 units=km r1=0.15 x1=0.089 normamps=290.0
New linecode.1129_3 nphases=3 basefreq=60.0 units=km r1=0.15 x1=0.089 normamps=290.0
New linecode.1129_4 nphases=4 basefreq=60.0 units=km r1=0.15 x1=0.089 normamps=290.0

New linecode.118_1 nphases=1 basefreq=60.0 units=km r1=0.15 x1=0.089 normamps=290.0
New linecode.118_2 nphases=2 basefreq=60.0 units=km r1=0.15 x1=0.089 normamps=290.0
New linecode.118_3 nphases=3 basefreq=60.0 units=km r1=0.15 x1=0.089 normamps=290.0
New linecode.118_4 nphases=4 basefreq=60.0 units=km r1=0.15 x1=0.089 normamps=290.0

New linecode.121_1 nphases=1 basefreq=60.0 units=km r1=0.15 x1=0.089 normamps=290.0
New linecode.121_2 nphases=2 basefreq=60.0 units=km r1=0.15 x1=0.089 normamps=290.0
New linecode.121_3 nphases=3 basefreq=60.0 units=km r1=0.15 x1=0.089 normamps=290.0
New linecode.121_4 nphases=4 basefreq=60.0 units=km r1=0.15 x1=0.089 normamps=290.0

New linecode.122_1 nphases=1 basefreq=60.0 units=km r1=0.15 x1=0.089 normamps=290.0
New linecode.122_2 nphases=2 basefreq=60.0 units=km r1=0.15 x1=0.089 normamps=290.0
New linecode.122_3 nphases=3 basefreq=60.0 units=km r1=0.15 x1=0.089 normamps=290.0
New linecode.122_4 nphases=4 basefreq=60.0 units=km r1=0.15 x1=0.089 normamps=290.0

New linecode.123_1 nphases=1 basefreq=60.0 units=km r1=0.15 x1=0.089 normamps=290.0
New linecode.123_2 nphases=2 basefreq=60.0 units=km r1=0.15 x1=0.089 normamps=290.0
New linecode.123_3 nphases=3 basefreq=60.0 units=km r1=0.15 x1=0.089 normamps=290.0
New linecode.123_4 nphases=4 basefreq=60.0 units=km r1=0.15 x1=0.089 normamps=290.0

New linecode.124_1 nphases=1 basefreq=60.0 units=km r1=0.15 x1=0.089 normamps=290.0
New linecode.124_2 nphases=2 basefreq=60.0 units=km r1=0.15 x1=0.089 normamps=290.0
New linecode.124_3 nphases=3 basefreq=60.0 units=km r1=0.15 x1=0.089 normamps=290.0
New linecode.124_4 nphases=4 basefreq=60.0 units=km r1=0.15 x1=0.089 normamps=290.0

New linecode.128_1 nphases=1 basefreq=60.0 units=km r1=0.15 x1=0.089 normamps=290.0
New linecode.128_2 nphases=2 basefreq=60.0 units=km r1=0.15 x1=0.089 normamps=290.0
New linecode.128_3 nphases=3 basefreq=60.0 units=km r1=0.15 x1=0.089 normamps=290.0
New linecode.128_4 nphases=4 basefreq=60.0 units=km r1=0.15 x1=0.089 normamps=290.0

New linecode.1283_1 nphases=1 basefreq=60.0 units=km r1=0.15 x1=0.089 normamps=290.0
New linecode.1283_2 nphases=2 basefreq=60.0 units=km r1=0.15 x1=0.089 normamps=290.0
New linecode.1283_3 nphases=3 basefreq=60.0 units=km r1=0.15 x1=0.089 normamps=290.0
New linecode.1283_4 nphases=4 basefreq=60.0 units=km r1=0.15 x1=0.089 normamps=290.0

New linecode.131_1 nphases=1 basefreq=60.0 units=km r1=0.15 x1=0.089 normamps=290.0
New linecode.131_2 nphases=2 basefreq=60.0 units=km r1=0.15 x1=0.089 normamps=290.0
New linecode.131_3 nphases=3 basefreq=60.0 units=km r1=0.15 x1=0.089 normamps=290.0
New linecode.131_4 nphases=4 basefreq=60.0 units=km r1=0.15 x1=0.089 normamps=290.0

New linecode.133_1 nphases=1 basefreq=60.0 units=km r1=0.15 x1=0.089 normamps=290.0
New linecode.133_2 nphases=2 basefreq=60.0 units=km r1=0.15 x1=0.089 normamps=290.0
New linecode.133_3 nphases=3 basefreq=60.0 units=km r1=0.15 x1=0.089 normamps=290.0
New linecode.133_4 nphases=4 basefreq=60.0 units=km r1=0.15 x1=0.089 normamps=290.0

New linecode.152_1 nphases=1 basefreq=60.0 units=km r1=0.15 x1=0.089 normamps=290.0
New linecode.152_2 nphases=2 basefreq=60.0 units=km r1=0.15 x1=0.089 normamps=290.0
New linecode.152_3 nphases=3 basefreq=60.0 units=km r1=0.15 x1=0.089 normamps=290.0
New linecode.152_4 nphases=4 basefreq=60.0 units=km r1=0.15 x1=0.089 normamps=290.0

New linecode.153_1 nphases=1 basefreq=60.0 units=km r1=0.15 x1=0.089 normamps=290.0
New linecode.153_2 nphases=2 basefreq=60.0 units=km r1=0.15 x1=0.089 normamps=290.0
New linecode.153_3 nphases=3 basefreq=60.0 units=km r1=0.15 x1=0.089 normamps=290.0
New linecode.153_4 nphases=4 basefreq=60.0 units=km r1=0.15 x1=0.089 normamps=290.0

New linecode.1571_1 nphases=1 basefreq=60.0 units=km r1=0.15 x1=0.089 normamps=290.0
New linecode.1571_2 nphases=2 basefreq=60.0 units=km r1=0.15 x1=0.089 normamps=290.0
New linecode.1571_3 nphases=3 basefreq=60.0 units=km r1=0.15 x1=0.089 normamps=290.0
New linecode.1571_4 nphases=4 basefreq=60.0 units=km r1=0.15 x1=0.089 normamps=290.0

New linecode.1670_1 nphases=1 basefreq=60.0 units=km r1=0.15 x1=0.089 normamps=290.0
New linecode.1670_2 nphases=2 basefreq=60.0 units=km r1=0.15 x1=0.089 normamps=290.0
New linecode.1670_3 nphases=3 basefreq=60.0 units=km r1=0.15 x1=0.089 normamps=290.0
New linecode.1670_4 nphases=4 basefreq=60.0 units=km r1=0.15 x1=0.089 normamps=290.0

New linecode.168_1 nphases=1 basefreq=60.0 units=km r1=0.15 x1=0.089 normamps=290.0
New linecode.168_2 nphases=2 basefreq=60.0 units=km r1=0.15 x1=0.089 normamps=290.0
New linecode.168_3 nphases=3 basefreq=60.0 units=km r1=0.15 x1=0.089 normamps=290.0
New linecode.168_4 nphases=4 basefreq=60.0 units=km r1=0.15 x1=0.089 normamps=290.0

New linecode.174_1 nphases=1 basefreq=60.0 units=km r1=0.15 x1=0.089 normamps=290.0
New linecode.174_2 nphases=2 basefreq=60.0 units=km r1=0.15 x1=0.089 normamps=290.0
New linecode.174_3 nphases=3 basefreq=60.0 units=km r1=0.15 x1=0.089 normamps=290.0
New linecode.174_4 nphases=4 basefreq=60.0 units=km r1=0.15 x1=0.089 normamps=290.0

New linecode.190_1 nphases=1 basefreq=60.0 units=km r1=0.15 x1=0.089 normamps=290.0
New linecode.190_2 nphases=2 basefreq=60.0 units=km r1=0.15 x1=0.089 normamps=290.0
New linecode.190_3 nphases=3 basefreq=60.0 units=km r1=0.15 x1=0.089 normamps=290.0
New linecode.190_4 nphases=4 basefreq=60.0 units=km r1=0.15 x1=0.089 normamps=290.0

New linecode.233_1 nphases=1 basefreq=60.0 units=km r1=0.15 x1=0.089 normamps=290.0
New linecode.233_2 nphases=2 basefreq=60.0 units=km r1=0.15 x1=0.089 normamps=290.0
New linecode.233_3 nphases=3 basefreq=60.0 units=km r1=0.15 x1=0.089 normamps=290.0
New linecode.233_4 nphases=4 basefreq=60.0 units=km r1=0.15 x1=0.089 normamps=290.0

New linecode.235_1 nphases=1 basefreq=60.0 units=km r1=0.15 x1=0.089 normamps=290.0
New linecode.235_2 nphases=2 basefreq=60.0 units=km r1=0.15 x1=0.089 normamps=290.0
New linecode.235_3 nphases=3 basefreq=60.0 units=km r1=0.15 x1=0.089 normamps=290.0
New linecode.235_4 nphases=4 basefreq=60.0 units=km r1=0.15 x1=0.089 normamps=290.0

New linecode.25_1 nphases=1 basefreq=60.0 units=km r1=0.15 x1=0.089 normamps=290.0
New linecode.25_2 nphases=2 basefreq=60.0 units=km r1=0.15 x1=0.089 normamps=290.0
New linecode.25_3 nphases=3 basefreq=60.0 units=km r1=0.15 x1=0.089 normamps=290.0
New linecode.25_4 nphases=4 basefreq=60.0 units=km r1=0.15 x1=0.089 normamps=290.0

New linecode.394_1 nphases=1 basefreq=60.0 units=km r1=0.15 x1=0.089 normamps=290.0
New linecode.394_2 nphases=2 basefreq=60.0 units=km r1=0.15 x1=0.089 normamps=290.0
New linecode.394_3 nphases=3 basefreq=60.0 units=km r1=0.15 x1=0.089 normamps=290.0
New linecode.394_4 nphases=4 basefreq=60.0 units=km r1=0.15 x1=0.089 normamps=290.0

New linecode.429_1 nphases=1 basefreq=60.0 units=km r1=0.15 x1=0.089 normamps=290.0
New linecode.429_2 nphases=2 basefreq=60.0 units=km r1=0.15 x1=0.089 normamps=290.0
New linecode.429_3 nphases=3 basefreq=60.0 units=km r1=0.15 x1=0.089 normamps=290.0
New linecode.429_4 nphases=4 basefreq=60.0 units=km r1=0.15 x1=0.089 normamps=290.0

New linecode.776_1 nphases=1 basefreq=60.0 units=km r1=0.15 x1=0.089 normamps=290.0
New linecode.776_2 nphases=2 basefreq=60.0 units=km r1=0.15 x1=0.089 normamps=290.0
New linecode.776_3 nphases=3 basefreq=60.0 units=km r1=0.15 x1=0.089 normamps=290.0
New linecode.776_4 nphases=4 basefreq=60.0 units=km r1=0.15 x1=0.089 normamps=290.0

New linecode.784_1 nphases=1 basefreq=60.0 units=km r1=0.15 x1=0.089 normamps=290.0
New linecode.784_2 nphases=2 basefreq=60.0 units=km r1=0.15 x1=0.089 normamps=290.0
New linecode.784_3 nphases=3 basefreq=60.0 units=km r1=0.15 x1=0.089 normamps=290.0
New linecode.784_4 nphases=4 basefreq=60.0 units=km r1=0.15 x1=0.089 normamps=290.0

New linecode.847_1 nphases=1 basefreq=60.0 units=km r1=0.15 x1=0.089 normamps=290.0
New linecode.847_2 nphases=2 basefreq=60.0 units=km r1=0.15 x1=0.089 normamps=290.0
New linecode.847_3 nphases=3 basefreq=60.0 units=km r1=0.15 x1=0.089 normamps=290.0
New linecode.847_4 nphases=4 basefreq=60.0 units=km r1=0.15 x1=0.089 normamps=290.0

New linecode.BT_BT001_7_0_1_1 nphases=1 basefreq=60.0 units=km r1=3.92161 x1=0.42106 normamps=42.9
New linecode.BT_BT001_7_0_1_2 nphases=2 basefreq=60.0 units=km r1=3.92161 x1=0.42106 normamps=42.9
New linecode.BT_BT001_7_0_1_3 nphases=3 basefreq=60.0 units=km r1=3.92161 x1=0.42106 normamps=42.9
New linecode.BT_BT001_7_0_1_4 nphases=4 basefreq=60.0 units=km r1=3.92161 x1=0.42106 normamps=42.9

New linecode.BT_BT002_7_0_1_1 nphases=1 basefreq=60.0 units=km r1=2.5303 x1=0.39834 normamps=91.0
New linecode.BT_BT002_7_0_1_2 nphases=2 basefreq=60.0 units=km r1=2.5303 x1=0.39834 normamps=91.0
New linecode.BT_BT002_7_0_1_3 nphases=3 basefreq=60.0 units=km r1=2.5303 x1=0.39834 normamps=91.0
New linecode.BT_BT002_7_0_1_4 nphases=4 basefreq=60.0 units=km r1=2.5303 x1=0.39834 normamps=91.0

New linecode.BT_BT003_5_0_1_1 nphases=1 basefreq=60.0 units=km r1=1.5896 x1=0.37504 normamps=98.8
New linecode.BT_BT003_5_0_1_2 nphases=2 basefreq=60.0 units=km r1=1.5896 x1=0.37504 normamps=98.8
New linecode.BT_BT003_5_0_1_3 nphases=3 basefreq=60.0 units=km r1=1.5896 x1=0.37504 normamps=98.8
New linecode.BT_BT003_5_0_1_4 nphases=4 basefreq=60.0 units=km r1=1.5896 x1=0.37504 normamps=98.8

New linecode.BT_BT003_7_0_1_1 nphases=1 basefreq=60.0 units=km r1=1.5896 x1=0.37504 normamps=98.8
New linecode.BT_BT003_7_0_1_2 nphases=2 basefreq=60.0 units=km r1=1.5896 x1=0.37504 normamps=98.8
New linecode.BT_BT003_7_0_1_3 nphases=3 basefreq=60.0 units=km r1=1.5896 x1=0.37504 normamps=98.8
New linecode.BT_BT003_7_0_1_4 nphases=4 basefreq=60.0 units=km r1=1.5896 x1=0.37504 normamps=98.8

New linecode.BT_BT004_5_0_1_1 nphases=1 basefreq=60.0 units=km r1=1.22784 x1=0.37908 normamps=120.9
New linecode.BT_BT004_5_0_1_2 nphases=2 basefreq=60.0 units=km r1=1.22784 x1=0.37908 normamps=120.9
New linecode.BT_BT004_5_0_1_3 nphases=3 basefreq=60.0 units=km r1=1.22784 x1=0.37908 normamps=120.9
New linecode.BT_BT004_5_0_1_4 nphases=4 basefreq=60.0 units=km r1=1.22784 x1=0.37908 normamps=120.9

New linecode.BT_BT004_7_0_1_1 nphases=1 basefreq=60.0 units=km r1=1.22784 x1=0.37908 normamps=120.9
New linecode.BT_BT004_7_0_1_2 nphases=2 basefreq=60.0 units=km r1=1.22784 x1=0.37908 normamps=120.9
New linecode.BT_BT004_7_0_1_3 nphases=3 basefreq=60.0 units=km r1=1.22784 x1=0.37908 normamps=120.9
New linecode.BT_BT004_7_0_1_4 nphases=4 basefreq=60.0 units=km r1=1.22784 x1=0.37908 normamps=120.9

New linecode.BT_BT005_7_0_1_1 nphases=1 basefreq=60.0 units=km r1=0.77257 x1=0.3546 normamps=131.3
New linecode.BT_BT005_7_0_1_2 nphases=2 basefreq=60.0 units=km r1=0.77257 x1=0.3546 normamps=131.3
New linecode.BT_BT005_7_0_1_3 nphases=3 basefreq=60.0 units=km r1=0.77257 x1=0.3546 normamps=131.3
New linecode.BT_BT005_7_0_1_4 nphases=4 basefreq=60.0 units=km r1=0.77257 x1=0.3546 normamps=131.3

New linecode.BT_BT006_5_0_1_1 nphases=1 basefreq=60.0 units=km r1=1.0019 x1=0.3634 normamps=176.8
New linecode.BT_BT006_5_0_1_2 nphases=2 basefreq=60.0 units=km r1=1.0019 x1=0.3634 normamps=176.8
New linecode.BT_BT006_5_0_1_3 nphases=3 basefreq=60.0 units=km r1=1.0019 x1=0.3634 normamps=176.8
New linecode.BT_BT006_5_0_1_4 nphases=4 basefreq=60.0 units=km r1=1.0019 x1=0.3634 normamps=176.8

New linecode.BT_BT006_7_0_1_1 nphases=1 basefreq=60.0 units=km r1=1.0019 x1=0.3634 normamps=176.8
New linecode.BT_BT006_7_0_1_2 nphases=2 basefreq=60.0 units=km r1=1.0019 x1=0.3634 normamps=176.8
New linecode.BT_BT006_7_0_1_3 nphases=3 basefreq=60.0 units=km r1=1.0019 x1=0.3634 normamps=176.8
New linecode.BT_BT006_7_0_1_4 nphases=4 basefreq=60.0 units=km r1=1.0019 x1=0.3634 normamps=176.8

New linecode.BT_BT007_5_0_1_1 nphases=1 basefreq=60.0 units=km r1=0.635 x1=0.34589 normamps=252.2
New linecode.BT_BT007_5_0_1_2 nphases=2 basefreq=60.0 units=km r1=0.635 x1=0.34589 normamps=252.2
New linecode.BT_BT007_5_0_1_3 nphases=3 basefreq=60.0 units=km r1=0.635 x1=0.34589 normamps=252.2
New linecode.BT_BT007_5_0_1_4 nphases=4 basefreq=60.0 units=km r1=0.635 x1=0.34589 normamps=252.2

New linecode.BT_BT007_7_0_1_1 nphases=1 basefreq=60.0 units=km r1=0.635 x1=0.34589 normamps=252.2
New linecode.BT_BT007_7_0_1_2 nphases=2 basefreq=60.0 units=km r1=0.635 x1=0.34589 normamps=252.2
New linecode.BT_BT007_7_0_1_3 nphases=3 basefreq=60.0 units=km r1=0.635 x1=0.34589 normamps=252.2
New linecode.BT_BT007_7_0_1_4 nphases=4 basefreq=60.0 units=km r1=0.635 x1=0.34589 normamps=252.2

New linecode.BT_BT008_5_0_1_1 nphases=1 basefreq=60.0 units=km r1=0.4047 x1=0.32431 normamps=327.6
New linecode.BT_BT008_5_0_1_2 nphases=2 basefreq=60.0 units=km r1=0.4047 x1=0.32431 normamps=327.6
New linecode.BT_BT008_5_0_1_3 nphases=3 basefreq=60.0 units=km r1=0.4047 x1=0.32431 normamps=327.6
New linecode.BT_BT008_5_0_1_4 nphases=4 basefreq=60.0 units=km r1=0.4047 x1=0.32431 normamps=327.6

New linecode.BT_BT008_7_0_1_1 nphases=1 basefreq=60.0 units=km r1=0.4047 x1=0.32431 normamps=327.6
New linecode.BT_BT008_7_0_1_2 nphases=2 basefreq=60.0 units=km r1=0.4047 x1=0.32431 normamps=327.6
New linecode.BT_BT008_7_0_1_3 nphases=3 basefreq=60.0 units=km r1=0.4047 x1=0.32431 normamps=327.6
New linecode.BT_BT008_7_0_1_4 nphases=4 basefreq=60.0 units=km r1=0.4047 x1=0.32431 normamps=327.6

New linecode.BT_BT009_5_0_1_1 nphases=1 basefreq=60.0 units=km r1=0.3208 x1=0.31543 normamps=380.9
New linecode.BT_BT009_5_0_1_2 nphases=2 basefreq=60.0 units=km r1=0.3208 x1=0.31543 normamps=380.9
New linecode.BT_BT009_5_0_1_3 nphases=3 basefreq=60.0 units=km r1=0.3208 x1=0.31543 normamps=380.9
New linecode.BT_BT009_5_0_1_4 nphases=4 basefreq=60.0 units=km r1=0.3208 x1=0.31543 normamps=380.9

New linecode.BT_BT009_7_0_1_1 nphases=1 basefreq=60.0 units=km r1=0.3208 x1=0.31543 normamps=380.9
New linecode.BT_BT009_7_0_1_2 nphases=2 basefreq=60.0 units=km r1=0.3208 x1=0.31543 normamps=380.9
New linecode.BT_BT009_7_0_1_3 nphases=3 basefreq=60.0 units=km r1=0.3208 x1=0.31543 normamps=380.9
New linecode.BT_BT009_7_0_1_4 nphases=4 basefreq=60.0 units=km r1=0.3208 x1=0.31543 normamps=380.9

New linecode.BT_BT010_5_0_1_1 nphases=1 basefreq=60.0 units=km r1=0.2551 x1=0.29889 normamps=439.4
New linecode.BT_BT010_5_0_1_2 nphases=2 basefreq=60.0 units=km r1=0.2551 x1=0.29889 normamps=439.4
New linecode.BT_BT010_5_0_1_3 nphases=3 basefreq=60.0 units=km r1=0.2551 x1=0.29889 normamps=439.4
New linecode.BT_BT010_5_0_1_4 nphases=4 basefreq=60.0 units=km r1=0.2551 x1=0.29889 normamps=439.4

New linecode.BT_BT010_7_0_1_1 nphases=1 basefreq=60.0 units=km r1=0.2551 x1=0.29889 normamps=439.4
New linecode.BT_BT010_7_0_1_2 nphases=2 basefreq=60.0 units=km r1=0.2551 x1=0.29889 normamps=439.4
New linecode.BT_BT010_7_0_1_3 nphases=3 basefreq=60.0 units=km r1=0.2551 x1=0.29889 normamps=439.4
New linecode.BT_BT010_7_0_1_4 nphases=4 basefreq=60.0 units=km r1=0.2551 x1=0.29889 normamps=439.4

New linecode.BT_BT011_5_0_1_1 nphases=1 basefreq=60.0 units=km r1=0.2027 x1=0.29792 normamps=512.2
New linecode.BT_BT011_5_0_1_2 nphases=2 basefreq=60.0 units=km r1=0.2027 x1=0.29792 normamps=512.2
New linecode.BT_BT011_5_0_1_3 nphases=3 basefreq=60.0 units=km r1=0.2027 x1=0.29792 normamps=512.2
New linecode.BT_BT011_5_0_1_4 nphases=4 basefreq=60.0 units=km r1=0.2027 x1=0.29792 normamps=512.2

New linecode.BT_BT011_7_0_1_1 nphases=1 basefreq=60.0 units=km r1=0.2027 x1=0.29792 normamps=512.2
New linecode.BT_BT011_7_0_1_2 nphases=2 basefreq=60.0 units=km r1=0.2027 x1=0.29792 normamps=512.2
New linecode.BT_BT011_7_0_1_3 nphases=3 basefreq=60.0 units=km r1=0.2027 x1=0.29792 normamps=512.2
New linecode.BT_BT011_7_0_1_4 nphases=4 basefreq=60.0 units=km r1=0.2027 x1=0.29792 normamps=512.2

New linecode.BT_BT101_7_0_1_1 nphases=1 basefreq=60.0 units=km r1=6.40252 x1=0.40416 normamps=62.4
New linecode.BT_BT101_7_0_1_2 nphases=2 basefreq=60.0 units=km r1=6.40252 x1=0.40416 normamps=62.4
New linecode.BT_BT101_7_0_1_3 nphases=3 basefreq=60.0 units=km r1=6.40252 x1=0.40416 normamps=62.4
New linecode.BT_BT101_7_0_1_4 nphases=4 basefreq=60.0 units=km r1=6.40252 x1=0.40416 normamps=62.4

New linecode.BT_BT102_7_0_1_1 nphases=1 basefreq=60.0 units=km r1=4.04087 x1=0.39834 normamps=83.2
New linecode.BT_BT102_7_0_1_2 nphases=2 basefreq=60.0 units=km r1=4.04087 x1=0.39834 normamps=83.2
New linecode.BT_BT102_7_0_1_3 nphases=3 basefreq=60.0 units=km r1=4.04087 x1=0.39834 normamps=83.2
New linecode.BT_BT102_7_0_1_4 nphases=4 basefreq=60.0 units=km r1=4.04087 x1=0.39834 normamps=83.2

New linecode.BT_BT103_7_0_1_1 nphases=1 basefreq=60.0 units=km r1=2.5676 x1=0.35814 normamps=105.3
New linecode.BT_BT103_7_0_1_2 nphases=2 basefreq=60.0 units=km r1=2.5676 x1=0.35814 normamps=105.3
New linecode.BT_BT103_7_0_1_3 nphases=3 basefreq=60.0 units=km r1=2.5676 x1=0.35814 normamps=105.3
New linecode.BT_BT103_7_0_1_4 nphases=4 basefreq=60.0 units=km r1=2.5676 x1=0.35814 normamps=105.3

New linecode.BT_BT104_7_0_1_1 nphases=1 basefreq=60.0 units=km r1=2.0084 x1=0.37908 normamps=106.6
New linecode.BT_BT104_7_0_1_2 nphases=2 basefreq=60.0 units=km r1=2.0084 x1=0.37908 normamps=106.6
New linecode.BT_BT104_7_0_1_3 nphases=3 basefreq=60.0 units=km r1=2.0084 x1=0.37908 normamps=106.6
New linecode.BT_BT104_7_0_1_4 nphases=4 basefreq=60.0 units=km r1=2.0084 x1=0.37908 normamps=106.6

New linecode.BT_BT105_7_0_1_1 nphases=1 basefreq=60.0 units=km r1=1.2637 x1=0.3377 normamps=131.3
New linecode.BT_BT105_7_0_1_2 nphases=2 basefreq=60.0 units=km r1=1.2637 x1=0.3377 normamps=131.3
New linecode.BT_BT105_7_0_1_3 nphases=3 basefreq=60.0 units=km r1=1.2637 x1=0.3377 normamps=131.3
New linecode.BT_BT105_7_0_1_4 nphases=4 basefreq=60.0 units=km r1=1.2637 x1=0.3377 normamps=131.3

New linecode.BT_BT106_5_0_1_1 nphases=1 basefreq=60.0 units=km r1=1.6118 x1=0.3634 normamps=144.3
New linecode.BT_BT106_5_0_1_2 nphases=2 basefreq=60.0 units=km r1=1.6118 x1=0.3634 normamps=144.3
New linecode.BT_BT106_5_0_1_3 nphases=3 basefreq=60.0 units=km r1=1.6118 x1=0.3634 normamps=144.3
New linecode.BT_BT106_5_0_1_4 nphases=4 basefreq=60.0 units=km r1=1.6118 x1=0.3634 normamps=144.3

New linecode.BT_BT106_7_0_1_1 nphases=1 basefreq=60.0 units=km r1=1.6118 x1=0.3634 normamps=144.3
New linecode.BT_BT106_7_0_1_2 nphases=2 basefreq=60.0 units=km r1=1.6118 x1=0.3634 normamps=144.3
New linecode.BT_BT106_7_0_1_3 nphases=3 basefreq=60.0 units=km r1=1.6118 x1=0.3634 normamps=144.3
New linecode.BT_BT106_7_0_1_4 nphases=4 basefreq=60.0 units=km r1=1.6118 x1=0.3634 normamps=144.3

New linecode.BT_BT107_5_0_1_1 nphases=1 basefreq=60.0 units=km r1=1.0145 x1=0.32899 normamps=193.7
New linecode.BT_BT107_5_0_1_2 nphases=2 basefreq=60.0 units=km r1=1.0145 x1=0.32899 normamps=193.7
New linecode.BT_BT107_5_0_1_3 nphases=3 basefreq=60.0 units=km r1=1.0145 x1=0.32899 normamps=193.7
New linecode.BT_BT107_5_0_1_4 nphases=4 basefreq=60.0 units=km r1=1.0145 x1=0.32899 normamps=193.7

New linecode.BT_BT107_7_0_1_1 nphases=1 basefreq=60.0 units=km r1=1.0145 x1=0.32899 normamps=193.7
New linecode.BT_BT107_7_0_1_2 nphases=2 basefreq=60.0 units=km r1=1.0145 x1=0.32899 normamps=193.7
New linecode.BT_BT107_7_0_1_3 nphases=3 basefreq=60.0 units=km r1=1.0145 x1=0.32899 normamps=193.7
New linecode.BT_BT107_7_0_1_4 nphases=4 basefreq=60.0 units=km r1=1.0145 x1=0.32899 normamps=193.7

New linecode.BT_BT108_5_0_1_1 nphases=1 basefreq=60.0 units=km r1=0.6375 x1=0.32431 normamps=261.3
New linecode.BT_BT108_5_0_1_2 nphases=2 basefreq=60.0 units=km r1=0.6375 x1=0.32431 normamps=261.3
New linecode.BT_BT108_5_0_1_3 nphases=3 basefreq=60.0 units=km r1=0.6375 x1=0.32431 normamps=261.3
New linecode.BT_BT108_5_0_1_4 nphases=4 basefreq=60.0 units=km r1=0.6375 x1=0.32431 normamps=261.3

New linecode.BT_BT108_7_0_1_1 nphases=1 basefreq=60.0 units=km r1=0.6375 x1=0.32431 normamps=261.3
New linecode.BT_BT108_7_0_1_2 nphases=2 basefreq=60.0 units=km r1=0.6375 x1=0.32431 normamps=261.3
New linecode.BT_BT108_7_0_1_3 nphases=3 basefreq=60.0 units=km r1=0.6375 x1=0.32431 normamps=261.3
New linecode.BT_BT108_7_0_1_4 nphases=4 basefreq=60.0 units=km r1=0.6375 x1=0.32431 normamps=261.3

New linecode.BT_BT109_5_0_1_1 nphases=1 basefreq=60.0 units=km r1=0.44944 x1=0.31543 normamps=299.0
New linecode.BT_BT109_5_0_1_2 nphases=2 basefreq=60.0 units=km r1=0.44944 x1=0.31543 normamps=299.0
New linecode.BT_BT109_5_0_1_3 nphases=3 basefreq=60.0 units=km r1=0.44944 x1=0.31543 normamps=299.0
New linecode.BT_BT109_5_0_1_4 nphases=4 basefreq=60.0 units=km r1=0.44944 x1=0.31543 normamps=299.0

New linecode.BT_BT109_7_0_1_1 nphases=1 basefreq=60.0 units=km r1=0.44944 x1=0.31543 normamps=299.0
New linecode.BT_BT109_7_0_1_2 nphases=2 basefreq=60.0 units=km r1=0.44944 x1=0.31543 normamps=299.0
New linecode.BT_BT109_7_0_1_3 nphases=3 basefreq=60.0 units=km r1=0.44944 x1=0.31543 normamps=299.0
New linecode.BT_BT109_7_0_1_4 nphases=4 basefreq=60.0 units=km r1=0.44944 x1=0.31543 normamps=299.0

New linecode.BT_BT110_7_0_1_1 nphases=1 basefreq=60.0 units=km r1=0.40104 x1=0.29889 normamps=351.0
New linecode.BT_BT110_7_0_1_2 nphases=2 basefreq=60.0 units=km r1=0.40104 x1=0.29889 normamps=351.0
New linecode.BT_BT110_7_0_1_3 nphases=3 basefreq=60.0 units=km r1=0.40104 x1=0.29889 normamps=351.0
New linecode.BT_BT110_7_0_1_4 nphases=4 basefreq=60.0 units=km r1=0.40104 x1=0.29889 normamps=351.0

New linecode.BT_BT111_5_0_1_1 nphases=1 basefreq=60.0 units=km r1=0.3184 x1=0.29792 normamps=408.2
New linecode.BT_BT111_5_0_1_2 nphases=2 basefreq=60.0 units=km r1=0.3184 x1=0.29792 normamps=408.2
New linecode.BT_BT111_5_0_1_3 nphases=3 basefreq=60.0 units=km r1=0.3184 x1=0.29792 normamps=408.2
New linecode.BT_BT111_5_0_1_4 nphases=4 basefreq=60.0 units=km r1=0.3184 x1=0.29792 normamps=408.2

New linecode.BT_BT111_7_0_1_1 nphases=1 basefreq=60.0 units=km r1=0.3184 x1=0.29792 normamps=408.2
New linecode.BT_BT111_7_0_1_2 nphases=2 basefreq=60.0 units=km r1=0.3184 x1=0.29792 normamps=408.2
New linecode.BT_BT111_7_0_1_3 nphases=3 basefreq=60.0 units=km r1=0.3184 x1=0.29792 normamps=408.2
New linecode.BT_BT111_7_0_1_4 nphases=4 basefreq=60.0 units=km r1=0.3184 x1=0.29792 normamps=408.2

New linecode.BT_BT201_7_0_1_1 nphases=1 basefreq=60.0 units=km r1=6.4147 x1=0.40416 normamps=32.5
New linecode.BT_BT201_7_0_1_2 nphases=2 basefreq=60.0 units=km r1=6.4147 x1=0.40416 normamps=32.5
New linecode.BT_BT201_7_0_1_3 nphases=3 basefreq=60.0 units=km r1=6.4147 x1=0.40416 normamps=32.5
New linecode.BT_BT201_7_0_1_4 nphases=4 basefreq=60.0 units=km r1=6.4147 x1=0.40416 normamps=32.5

New linecode.BT_BT202_7_0_1_1 nphases=1 basefreq=60.0 units=km r1=4.02616 x1=0.40354 normamps=42.9
New linecode.BT_BT202_7_0_1_2 nphases=2 basefreq=60.0 units=km r1=4.02616 x1=0.40354 normamps=42.9
New linecode.BT_BT202_7_0_1_3 nphases=3 basefreq=60.0 units=km r1=4.02616 x1=0.40354 normamps=42.9
New linecode.BT_BT202_7_0_1_4 nphases=4 basefreq=60.0 units=km r1=4.02616 x1=0.40354 normamps=42.9

New linecode.BT_BT203_7_0_1_1 nphases=1 basefreq=60.0 units=km r1=2.11523 x1=0.36218 normamps=106.6
New linecode.BT_BT203_7_0_1_2 nphases=2 basefreq=60.0 units=km r1=2.11523 x1=0.36218 normamps=106.6
New linecode.BT_BT203_7_0_1_3 nphases=3 basefreq=60.0 units=km r1=2.11523 x1=0.36218 normamps=106.6
New linecode.BT_BT203_7_0_1_4 nphases=4 basefreq=60.0 units=km r1=2.11523 x1=0.36218 normamps=106.6

New linecode.BT_BT204_7_0_1_1 nphases=1 basefreq=60.0 units=km r1=2.64739 x1=0.40267 normamps=109.2
New linecode.BT_BT204_7_0_1_2 nphases=2 basefreq=60.0 units=km r1=2.64739 x1=0.40267 normamps=109.2
New linecode.BT_BT204_7_0_1_3 nphases=3 basefreq=60.0 units=km r1=2.64739 x1=0.40267 normamps=109.2
New linecode.BT_BT204_7_0_1_4 nphases=4 basefreq=60.0 units=km r1=2.64739 x1=0.40267 normamps=109.2

New linecode.BT_BT205_7_0_1_1 nphases=1 basefreq=60.0 units=km r1=1.37694 x1=0.39606 normamps=131.3
New linecode.BT_BT205_7_0_1_2 nphases=2 basefreq=60.0 units=km r1=1.37694 x1=0.39606 normamps=131.3
New linecode.BT_BT205_7_0_1_3 nphases=3 basefreq=60.0 units=km r1=1.37694 x1=0.39606 normamps=131.3
New linecode.BT_BT205_7_0_1_4 nphases=4 basefreq=60.0 units=km r1=1.37694 x1=0.39606 normamps=131.3

New linecode.BT_BT206_5_0_1_1 nphases=1 basefreq=60.0 units=km r1=1.6397 x1=0.3465 normamps=145.6
New linecode.BT_BT206_5_0_1_2 nphases=2 basefreq=60.0 units=km r1=1.6397 x1=0.3465 normamps=145.6
New linecode.BT_BT206_5_0_1_3 nphases=3 basefreq=60.0 units=km r1=1.6397 x1=0.3465 normamps=145.6
New linecode.BT_BT206_5_0_1_4 nphases=4 basefreq=60.0 units=km r1=1.6397 x1=0.3465 normamps=145.6

New linecode.BT_BT206_7_0_1_1 nphases=1 basefreq=60.0 units=km r1=1.6397 x1=0.3465 normamps=145.6
New linecode.BT_BT206_7_0_1_2 nphases=2 basefreq=60.0 units=km r1=1.6397 x1=0.3465 normamps=145.6
New linecode.BT_BT206_7_0_1_3 nphases=3 basefreq=60.0 units=km r1=1.6397 x1=0.3465 normamps=145.6
New linecode.BT_BT206_7_0_1_4 nphases=4 basefreq=60.0 units=km r1=1.6397 x1=0.3465 normamps=145.6

New linecode.BT_BT207_5_0_1_1 nphases=1 basefreq=60.0 units=km r1=1.0323 x1=0.38435 normamps=196.3
New linecode.BT_BT207_5_0_1_2 nphases=2 basefreq=60.0 units=km r1=1.0323 x1=0.38435 normamps=196.3
New linecode.BT_BT207_5_0_1_3 nphases=3 basefreq=60.0 units=km r1=1.0323 x1=0.38435 normamps=196.3
New linecode.BT_BT207_5_0_1_4 nphases=4 basefreq=60.0 units=km r1=1.0323 x1=0.38435 normamps=196.3

New linecode.BT_BT207_7_0_1_1 nphases=1 basefreq=60.0 units=km r1=1.0323 x1=0.38435 normamps=196.3
New linecode.BT_BT207_7_0_1_2 nphases=2 basefreq=60.0 units=km r1=1.0323 x1=0.38435 normamps=196.3
New linecode.BT_BT207_7_0_1_3 nphases=3 basefreq=60.0 units=km r1=1.0323 x1=0.38435 normamps=196.3
New linecode.BT_BT207_7_0_1_4 nphases=4 basefreq=60.0 units=km r1=1.0323 x1=0.38435 normamps=196.3

New linecode.BT_BT208_5_0_1_1 nphases=1 basefreq=60.0 units=km r1=0.65 x1=0.30741 normamps=263.9
New linecode.BT_BT208_5_0_1_2 nphases=2 basefreq=60.0 units=km r1=0.65 x1=0.30741 normamps=263.9
New linecode.BT_BT208_5_0_1_3 nphases=3 basefreq=60.0 units=km r1=0.65 x1=0.30741 normamps=263.9