New load.pip648336-1 phases=1 bus=5001661258.1.2.4 model=2 kv=0.24 kw=0.00641968607305936 pf=0.92 conn=delta status=variable vmaxpu=1.5 vminpu=0.92 daily=IP
New load.pip648336-2 phases=1 bus=5001661258.1.2.4 model=3 kv=0.24 kw=0.00641968607305936 pf=0.92 conn=delta status=variable vmaxpu=1.5 vminpu=0.92 daily=IP

New load.pip648946-1 phases=1 bus=5001660817.3.1.4 model=2 kv=0.22 kw=0.01096634703196347 pf=0.92 conn=delta status=variable vmaxpu=1.5 vminpu=0.92 daily=IP
New load.pip648946-2 phases=1 bus=5001660817.3.1.4 model=3 kv=0.22 kw=0.01096634703196347 pf=0.92 conn=delta status=variable vmaxpu=1.5 vminpu=0.92 daily=IP

New load.pip652539-1 phases=1 bus=5002009221.1.2.4 model=2 kv=0.24 kw=0.01096634703196347 pf=0.92 conn=delta status=variable vmaxpu=1.5 vminpu=0.92 daily=IP
New load.pip652539-2 phases=1 bus=5002009221.1.2.4 model=3 kv=0.24 kw=0.01096634703196347 pf=0.92 conn=delta status=variable vmaxpu=1.5 vminpu=0.92 daily=IP

New load.pip653089-1 phases=1 bus=5001661440.1.2.4 model=2 kv=0.24 kw=0.01096634703196347 pf=0.92 conn=delta status=variable vmaxpu=1.5 vminpu=0.92 daily=IP
New load.pip653089-2 phases=1 bus=5001661440.1.2.4 model=3 kv=0.24 kw=0.01096634703196347 pf=0.92 conn=delta status=variable vmaxpu=1.5 vminpu=0.92 daily=IP

New load.pip656138-1 phases=1 bus=5001660593.1.2.4 model=2 kv=0.24 kw=0.01096634703196347 pf=0.92 conn=delta status=variable vmaxpu=1.5 vminpu=0.92 daily=IP
New load.pip656138-2 phases=1 bus=5001660593.1.2.4 model=3 kv=0.24 kw=0.01096634703196347 pf=0.92 conn=delta status=variable vmaxpu=1.5 vminpu=0.92 daily=IP

New load.pip658228-1 phases=1 bus=5001674831.1.2.4 model=2 kv=0.22 kw=0.01096634703196347 pf=0.92 conn=delta status=variable vmaxpu=1.5 vminpu=0.92 daily=IP
New load.pip658228-2 phases=1 bus=5001674831.1.2.4 model=3 kv=0.22 kw=0.01096634703196347 pf=0.92 conn=delta status=variable vmaxpu=1.5 vminpu=0.92 daily=IP

New load.pip659589-1 phases=1 bus=5001661062.2.3.4 model=2 kv=0.22 kw=0.007221626712328766 pf=0.92 conn=delta status=variable vmaxpu=1.5 vminpu=0.92 daily=IP
New load.pip659589-2 phases=1 bus=5001661062.2.3.4 model=3 kv=0.22 kw=0.007221626712328766 pf=0.92 conn=delta status=variable vmaxpu=1.5 vminpu=0.92 daily=IP

New load.pip659934-1 phases=1 bus=5001658738.2.3.4 model=2 kv=0.22 kw=0.01096634703196347 pf=0.92 conn=delta status=variable vmaxpu=1.5 vminpu=0.92 daily=IP
New load.pip659934-2 phases=1 bus=5001658738.2.3.4 model=3 kv=0.22 kw=0.01096634703196347 pf=0.92 conn=delta status=variable vmaxpu=1.5 vminpu=0.92 daily=IP

New load.pip660275-1 phases=1 bus=5001660201.1.2.4 model=2 kv=0.24 kw=0.01096634703196347 pf=0.92 conn=delta status=variable vmaxpu=1.5 vminpu=0.92 daily=IP
New load.pip660275-2 phases=1 bus=5001660201.1.2.4 model=3 kv=0.24 kw=0.01096634703196347 pf=0.92 conn=delta status=variable vmaxpu=1.5 vminpu=0.92 daily=IP

New load.pip660585-1 phases=1 bus=5001657429.1.2.4 model=2 kv=0.24 kw=0.01096634703196347 pf=0.92 conn=delta status=variable vmaxpu=1.5 vminpu=0.92 daily=IP
New load.pip660585-2 phases=1 bus=5001657429.1.2.4 model=3 kv=0.24 kw=0.01096634703196347 pf=0.92 conn=delta status=variable vmaxpu=1.5 vminpu=0.92 daily=IP

New load.pip669149-1 phases=1 bus=5001661286.1.2.4 model=2 kv=0.22 kw=0.01096634703196347 pf=0.92 conn=delta status=variable vmaxpu=1.5 vminpu=0.92 daily=IP
New load.pip669149-2 phases=1 bus=5001661286.1.2.4 model=3 kv=0.22 kw=0.01096634703196347 pf=0.92 conn=delta status=variable vmaxpu=1.5 vminpu=0.92 daily=IP

New load.pip670150-1 phases=1 bus=5001661076.2.3.4 model=2 kv=0.22 kw=0.007221626712328766 pf=0.92 conn=delta status=variable vmaxpu=1.5 vminpu=0.92 daily=IP
New load.pip670150-2 phases=1 bus=5001661076.2.3.4 model=3 kv=0.22 kw=0.007221626712328766 pf=0.92 conn=delta status=variable vmaxpu=1.5 vminpu=0.92 daily=IP

New load.pip673129-1 phases=1 bus=5001657324.1.2.4 model=2 kv=0.24 kw=0.01096634703196347 pf=0.92 conn=delta status=variable vmaxpu=1.5 vminpu=0.92 daily=IP
New load.pip673129-2 phases=1 bus=5001657324.1.2.4 model=3 kv=0.24 kw=0.01096634703196347 pf=0.92 conn=delta status=variable vmaxpu=1.5 vminpu=0.92 daily=IP

New load.pip674648-1 phases=1 bus=5001661419.1.2.4 model=2 kv=0.24 kw=0.01096634703196347 pf=0.92 conn=delta status=variable vmaxpu=1.5 vminpu=0.92 daily=IP
New load.pip674648-2 phases=1 bus=5001661419.1.2.4 model=3 kv=0.24 kw=0.01096634703196347 pf=0.92 conn=delta status=variable vmaxpu=1.5 vminpu=0.92 daily=IP

New load.pip677317-1 phases=1 bus=5008909568.2.3.4 model=2 kv=0.22 kw=0.01070200913242009 pf=0.92 conn=delta status=variable vmaxpu=1.5 vminpu=0.92 daily=IP
New load.pip677317-2 phases=1 bus=5008909568.2.3.4 model=3 kv=0.22 kw=0.01070200913242009 pf=0.92 conn=delta status=variable vmaxpu=1.5 vminpu=0.92 daily=IP

New load.pip677334-1 phases=1 bus=5000871392.2.3.4 model=2 kv=0.22 kw=0.01096634703196347 pf=0.92 conn=delta status=variable vmaxpu=1.5 vminpu=0.92 daily=IP
New load.pip677334-2 phases=1 bus=5000871392.2.3.4 model=3 kv=0.22 kw=0.01096634703196347 pf=0.92 conn=delta status=variable vmaxpu=1.5 vminpu=0.92 daily=IP

New load.pip680085-1 phases=1 bus=5001660957.3.1.4 model=2 kv=0.22 kw=0.01096634703196347 pf=0.92 conn=delta status=variable vmaxpu=1.5 vminpu=0.92 daily=IP
New load.pip680085-2 phases=1 bus=5001660957.3.1.4 model=3 kv=0.22 kw=0.01096634703196347 pf=0.92 conn=delta status=variable vmaxpu=1.5 vminpu=0.92 daily=IP

New load.pip680926-1 phases=1 bus=5008933173.3.1.4 model=2 kv=0.22 kw=0.01070200913242009 pf=0.92 conn=delta status=variable vmaxpu=1.5 vminpu=0.92 daily=IP
New load.pip680926-2 phases=1 bus=5008933173.3.1.4 model=3 kv=0.22 kw=0.01070200913242009 pf=0.92 conn=delta status=variable vmaxpu=1.5 vminpu=0.92 daily=IP

New load.pip682526-1 phases=1 bus=5000871350.3.1.4 model=2 kv=0.22 kw=0.016853698630136985 pf=0.92 conn=delta status=variable vmaxpu=1.5 vminpu=0.92 daily=IP
New load.pip682526-2 phases=1 bus=5000871350.3.1.4 model=3 kv=0.22 kw=0.016853698630136985 pf=0.92 conn=delta status=variable vmaxpu=1.5 vminpu=0.92 daily=IP

New load.pip684635-1 phases=1 bus=5008909576.3.1.4 model=2 kv=0.22 kw=0.008027186073059361 pf=0.92 conn=delta status=variable vmaxpu=1.5 vminpu=0.92 daily=IP
New load.pip684635-2 phases=1 bus=5008909576.3.1.4 model=3 kv=0.22 kw=0.008027186073059361 pf=0.92 conn=delta status=variable vmaxpu=1.5 vminpu=0.92 daily=IP

New load.pip684642-1 phases=1 bus=5000871378.1.2.4 model=2 kv=0.22 kw=0.01096634703196347 pf=0.92 conn=delta status=variable vmaxpu=1.5 vminpu=0.92 daily=IP
New load.pip684642-2 phases=1 bus=5000871378.1.2.4 model=3 kv=0.22 kw=0.01096634703196347 pf=0.92 conn=delta status=variable vmaxpu=1.5 vminpu=0.92 daily=IP

New load.pip686292-1 phases=1 bus=5008930923.2.3.4 model=2 kv=0.22 kw=0.008027186073059361 pf=0.92 conn=delta status=variable vmaxpu=1.5 vminpu=0.92 daily=IP
New load.pip686292-2 phases=1 bus=5008930923.2.3.4 model=3 kv=0.22 kw=0.008027186073059361 pf=0.92 conn=delta status=variable vmaxpu=1.5 vminpu=0.92 daily=IP

New load.pip688867-1 phases=1 bus=5002210394.2.3.4 model=2 kv=0.22 kw=0.01872919520547945 pf=0.92 conn=delta status=variable vmaxpu=1.5 vminpu=0.92 daily=IP
New load.pip688867-2 phases=1 bus=5002210394.2.3.4 model=3 kv=0.22 kw=0.01872919520547945 pf=0.92 conn=delta status=variable vmaxpu=1.5 vminpu=0.92 daily=IP

New load.pip689153-1 phases=1 bus=5008933262.2.3.4 model=2 kv=0.22 kw=0.01070200913242009 pf=0.92 conn=delta status=variable vmaxpu=1.5 vminpu=0.92 daily=IP
New load.pip689153-2 phases=1 bus=5008933262.2.3.4 model=3 kv=0.22 kw=0.01070200913242009 pf=0.92 conn=delta status=variable vmaxpu=1.5 vminpu=0.92 daily=IP

New load.pip689344-1 phases=1 bus=5001672892.2.3.4 model=2 kv=0.22 kw=0.01070200913242009 pf=0.92 conn=delta status=variable vmaxpu=1.5 vminpu=0.92 daily=IP
New load.pip689344-2 phases=1 bus=5001672892.2.3.4 model=3 kv=0.22 kw=0.01070200913242009 pf=0.92 conn=delta status=variable vmaxpu=1.5 vminpu=0.92 daily=IP

New load.pip690708-1 phases=1 bus=5000871315.2.3.4 model=2 kv=0.22 kw=0.016853698630136985 pf=0.92 conn=delta status=variable vmaxpu=1.5 vminpu=0.92 daily=IP
New load.pip690708-2 phases=1 bus=5000871315.2.3.4 model=3 kv=0.22 kw=0.016853698630136985 pf=0.92 conn=delta status=variable vmaxpu=1.5 vminpu=0.92 daily=IP

New load.pip692179-1 phases=1 bus=5008931100.3.1.4 model=2 kv=0.22 kw=0.01070200913242009 pf=0.92 conn=delta status=variable vmaxpu=1.5 vminpu=0.92 daily=IP
New load.pip692179-2 phases=1 bus=5008931100.3.1.4 model=3 kv=0.22 kw=0.01070200913242009 pf=0.92 conn=delta status=variable vmaxpu=1.5 vminpu=0.92 daily=IP

New load.pip692180-1 phases=1 bus=5008930973.3.1.4 model=2 kv=0.22 kw=0.008027186073059361 pf=0.92 conn=delta status=variable vmaxpu=1.5 vminpu=0.92 daily=IP
New load.pip692180-2 phases=1 bus=5008930973.3.1.4 model=3 kv=0.22 kw=0.008027186073059361 pf=0.92 conn=delta status=variable vmaxpu=1.5 vminpu=0.92 daily=IP

New load.pip693087-1 phases=1 bus=5001660600.1.2.4 model=2 kv=0.24 kw=0.01096634703196347 pf=0.92 conn=delta status=variable vmaxpu=1.5 vminpu=0.92 daily=IP
New load.pip693087-2 phases=1 bus=5001660600.1.2.4 model=3 kv=0.24 kw=0.01096634703196347 pf=0.92 conn=delta status=variable vmaxpu=1.5 vminpu=0.92 daily=IP

New load.pip693755-1 phases=1 bus=5001660474.1.2.4 model=2 kv=0.24 kw=0.007221626712328766 pf=0.92 conn=delta status=variable vmaxpu=1.5 vminpu=0.92 daily=IP
New load.pip693755-2 phases=1 bus=5001660474.1.2.4 model=3 kv=0.24 kw=0.007221626712328766 pf=0.92 conn=delta status=variable vmaxpu=1.5 vminpu=0.92 daily=IP

New load.pip694285-1 phases=1 bus=5001661342.3.1.4 model=2 kv=0.22 kw=0.01096634703196347 pf=0.92 conn=delta status=variable vmaxpu=1.5 vminpu=0.92 daily=IP
New load.pip694285-2 phases=1 bus=5001661342.3.1.4 model=3 kv=0.22 kw=0.01096634703196347 pf=0.92 conn=delta status=variable vmaxpu=1.5 vminpu=0.92 daily=IP

New load.pip694494-1 phases=1 bus=5001657814.1.2.4 model=2 kv=0.24 kw=0.01096634703196347 pf=0.92 conn=delta status=variable vmaxpu=1.5 vminpu=0.92 daily=IP
New load.pip694494-2 phases=1 bus=5001657814.1.2.4 model=3 kv=0.24 kw=0.01096634703196347 pf=0.92 conn=delta status=variable vmaxpu=1.5 vminpu=0.92 daily=IP

New load.pip694495-1 phases=1 bus=5001660523.1.2.4 model=2 kv=0.24 kw=0.01096634703196347 pf=0.92 conn=delta status=variable vmaxpu=1.5 vminpu=0.92 daily=IP
New load.pip694495-2 phases=1 bus=5001660523.1.2.4 model=3 kv=0.24 kw=0.01096634703196347 pf=0.92 conn=delta status=variable vmaxpu=1.5 vminpu=0.92 daily=IP

New load.pip694506-1 phases=1 bus=5001673039.3.1.4 model=2 kv=0.22 kw=0.01872919520547945 pf=0.92 conn=delta status=variable vmaxpu=1.5 vminpu=0.92 daily=IP
New load.pip694506-2 phases=1 bus=5001673039.3.1.4 model=3 kv=0.22 kw=0.01872919520547945 pf=0.92 conn=delta status=variable vmaxpu=1.5 vminpu=0.92 daily=IP

New load.pip694580-1 phases=1 bus=5000873051.1.2.4 model=2 kv=0.22 kw=0.0401302397260274 pf=0.92 conn=delta status=variable vmaxpu=1.5 vminpu=0.92 daily=IP
New load.pip694580-2 phases=1 bus=5000873051.1.2.4 model=3 kv=0.22 kw=0.0401302397260274 pf=0.92 conn=delta status=variable vmaxpu=1.5 vminpu=0.92 daily=IP

New load.pip694791-1 phases=1 bus=5001660439.1.2.4 model=2 kv=0.24 kw=0.01096634703196347 pf=0.92 conn=delta status=variable vmaxpu=1.5 vminpu=0.92 daily=IP
New load.pip694791-2 phases=1 bus=5001660439.1.2.4 model=3 kv=0.24 kw=0.01096634703196347 pf=0.92 conn=delta status=variable vmaxpu=1.5 vminpu=0.92 daily=IP

New load.pip695758-1 phases=1 bus=5002212403.1.2.4 model=2 kv=0.22 kw=0.01872919520547945 pf=0.92 conn=delta status=variable vmaxpu=1.5 vminpu=0.92 daily=IP
New load.pip695758-2 phases=1 bus=5002212403.1.2.4 model=3 kv=0.22 kw=0.01872919520547945 pf=0.92 conn=delta status=variable vmaxpu=1.5 vminpu=0.92 daily=IP

New load.pip696235-1 phases=1 bus=5001660453.1.2.4 model=2 kv=0.24 kw=0.01096634703196347 pf=0.92 conn=delta status=variable vmaxpu=1.5 vminpu=0.92 daily=IP
New load.pip696235-2 phases=1 bus=5001660453.1.2.4 model=3 kv=0.24 kw=0.01096634703196347 pf=0.92 conn=delta status=variable vmaxpu=1.5 vminpu=0.92 daily=IP

New load.pip697722-1 phases=1 bus=5009176704.1.2.4 model=2 kv=0.22 kw=0.01284324200913242 pf=0.92 conn=delta status=variable vmaxpu=1.5 vminpu=0.92 daily=IP
New load.pip697722-2 phases=1 bus=5009176704.1.2.4 model=3 kv=0.22 kw=0.01284324200913242 pf=0.92 conn=delta status=variable vmaxpu=1.5 vminpu=0.92 daily=IP

New load.pip698404-1 phases=1 bus=5001657275.1.2.4 model=2 kv=0.24 kw=0.01096634703196347 pf=0.92 conn=delta status=variable vmaxpu=1.5 vminpu=0.92 daily=IP
New load.pip698404-2 phases=1 bus=5001657275.1.2.4 model=3 kv=0.24 kw=0.01096634703196347 pf=0.92 conn=delta status=variable vmaxpu=1.5 vminpu=0.92 daily=IP

New load.pip698448-1 phases=1 bus=5001673263.3.1.4 model=2 kv=0.22 kw=0.01872919520547945 pf=0.92 conn=delta status=variable vmaxpu=1.5 vminpu=0.92 daily=IP
New load.pip698448-2 phases=1 bus=5001673263.3.1.4 model=3 kv=0.22 kw=0.01872919520547945 pf=0.92 conn=delta status=variable vmaxpu=1.5 vminpu=0.92 daily=IP

New load.pip698630-1 phases=1 bus=5001658472.1.2.4 model=2 kv=0.24 kw=0.01096634703196347 pf=0.92 conn=delta status=variable vmaxpu=1.5 vminpu=0.92 daily=IP
New load.pip698630-2 phases=1 bus=5001658472.1.2.4 model=3 kv=0.24 kw=0.01096634703196347 pf=0.92 conn=delta status=variable vmaxpu=1.5 vminpu=0.92 daily=IP

New load.pip699041-1 phases=1 bus=5008931122.1.2.4 model=2 kv=0.22 kw=0.01070200913242009 pf=0.92 conn=delta status=variable vmaxpu=1.5 vminpu=0.92 daily=IP
New load.pip699041-2 phases=1 bus=5008931122.1.2.4 model=3 kv=0.22 kw=0.01070200913242009 pf=0.92 conn=delta status=variable vmaxpu=1.5 vminpu=0.92 daily=IP

New load.pip699042-1 phases=1 bus=5000871119.2.3.4 model=2 kv=0.22 kw=0.01284324200913242 pf=0.92 conn=delta status=variable vmaxpu=1.5 vminpu=0.92 daily=IP
New load.pip699042-2 phases=1 bus=5000871119.2.3.4 model=3 kv=0.22 kw=0.01284324200913242 pf=0.92 conn=delta status=variable vmaxpu=1.5 vminpu=0.92 daily=IP

New load.pip700366-1 phases=1 bus=5001657954.1.2.4 model=2 kv=0.24 kw=0.01096634703196347 pf=0.92 conn=delta status=variable vmaxpu=1.5 vminpu=0.92 daily=IP
New load.pip700366-2 phases=1 bus=5001657954.1.2.4 model=3 kv=0.24 kw=0.01096634703196347 pf=0.92 conn=delta status=variable vmaxpu=1.5 vminpu=0.92 daily=IP

New load.pip700367-1 phases=1 bus=5001855263.1.2.4 model=2 kv=0.24 kw=0.01096634703196347 pf=0.92 conn=delta status=variable vmaxpu=1.5 vminpu=0.92 daily=IP
New load.pip700367-2 phases=1 bus=5001855263.1.2.4 model=3 kv=0.24 kw=0.01096634703196347 pf=0.92 conn=delta status=variable vmaxpu=1.5 vminpu=0.92 daily=IP

New load.pip700940-1 phases=1 bus=5001660992.3.1.4 model=2 kv=0.22 kw=0.007221626712328766 pf=0.92 conn=delta status=variable vmaxpu=1.5 vminpu=0.92 daily=IP
New load.pip700940-2 phases=1 bus=5001660992.3.1.4 model=3 kv=0.22 kw=0.007221626712328766 pf=0.92 conn=delta status=variable vmaxpu=1.5 vminpu=0.92 daily=IP

New load.pip701490-1 phases=1 bus=5001661195.1.2.4 model=2 kv=0.24 kw=0.00641968607305936 pf=0.92 conn=delta status=variable vmaxpu=1.5 vminpu=0.92 daily=IP
New load.pip701490-2 phases=1 bus=5001661195.1.2.4 model=3 kv=0.24 kw=0.00641968607305936 pf=0.92 conn=delta status=variable vmaxpu=1.5 vminpu=0.92 daily=IP

New load.pip701730-1 phases=1 bus=5008933213.1.2.4 model=2 kv=0.22 kw=0.008027186073059361 pf=0.92 conn=delta status=variable vmaxpu=1.5 vminpu=0.92 daily=IP
New load.pip701730-2 phases=1 bus=5008933213.1.2.4 model=3 kv=0.22 kw=0.008027186073059361 pf=0.92 conn=delta status=variable vmaxpu=1.5 vminpu=0.92 daily=IP

New load.pip702060-1 phases=1 bus=5001668384.2.3.4 model=2 kv=0.22 kw=0.007221626712328766 pf=0.92 conn=delta status=variable vmaxpu=1.5 vminpu=0.92 daily=IP
New load.pip702060-2 phases=1 bus=5001668384.2.3.4 model=3 kv=0.22 kw=0.007221626712328766 pf=0.92 conn=delta status=variable vmaxpu=1.5 vminpu=0.92 daily=IP

New load.pip703524-1 phases=1 bus=5000871196.2.3.4 model=2 kv=0.22 kw=0.01070200913242009 pf=0.92 conn=delta status=variable vmaxpu=1.5 vminpu=0.92 daily=IP
New load.pip703524-2 phases=1 bus=5000871196.2.3.4 model=3 kv=0.22 kw=0.01070200913242009 pf=0.92 conn=delta status=variable vmaxpu=1.5 vminpu=0.92 daily=IP

New load.pip703603-1 phases=1 bus=5001661272.2.3.4 model=2 kv=0.22 kw=0.01096634703196347 pf=0.92 conn=delta status=variable vmaxpu=1.5 vminpu=0.92 daily=IP
New load.pip703603-2 phases=1 bus=5001661272.2.3.4 model=3 kv=0.22 kw=0.01096634703196347 pf=0.92 conn=delta status=variable vmaxpu=1.5 vminpu=0.92 daily=IP

New load.pip703713-1 phases=1 bus=5001661552.1.2.4 model=2 kv=0.24 kw=0.01096634703196347 pf=0.92 conn=delta status=variable vmaxpu=1.5 vminpu=0.92 daily=IP
New load.pip703713-2 phases=1 bus=5001661552.1.2.4 model=3 kv=0.24 kw=0.01096634703196347 pf=0.92 conn=delta status=variable vmaxpu=1.5 vminpu=0.92 daily=IP

New load.pip705148-1 phases=1 bus=5008931032.1.2.4 model=2 kv=0.22 kw=0.01070200913242009 pf=0.92 conn=delta status=variable vmaxpu=1.5 vminpu=0.92 daily=IP
New load.pip705148-2 phases=1 bus=5008931032.1.2.4 model=3 kv=0.22 kw=0.01070200913242009 pf=0.92 conn=delta status=variable vmaxpu=1.5 vminpu=0.92 daily=IP

New load.pip705268-1 phases=1 bus=5009176709.3.1.4 model=2 kv=0.22 kw=0.01284324200913242 pf=0.92 conn=delta status=variable vmaxpu=1.5 vminpu=0.92 daily=IP
New load.pip705268-2 phases=1 bus=5009176709.3.1.4 model=3 kv=0.22 kw=0.01284324200913242 pf=0.92 conn=delta status=variable vmaxpu=1.5 vminpu=0.92 daily=IP

New load.pip705454-1 phases=1 bus=5000873044.3.1.4 model=2 kv=0.22 kw=0.00882841324200913 pf=0.92 conn=delta status=variable vmaxpu=1.5 vminpu=0.92 daily=IP
New load.pip705454-2 phases=1 bus=5000873044.3.1.4 model=3 kv=0.22 kw=0.00882841324200913 pf=0.92 conn=delta status=variable vmaxpu=1.5 vminpu=0.92 daily=IP

New load.pip705568-1 phases=1 bus=5001657359.1.2.4 model=2 kv=0.24 kw=0.01096634703196347 pf=0.92 conn=delta status=variable vmaxpu=1.5 vminpu=0.92 daily=IP
New load.pip705568-2 phases=1 bus=5001657359.1.2.4 model=3 kv=0.24 kw=0.01096634703196347 pf=0.92 conn=delta status=variable vmaxpu=1.5 vminpu=0.92 daily=IP

New load.pip706312-1 phases=1 bus=5002009214.1.2.4 model=2 kv=0.24 kw=0.01096634703196347 pf=0.92 conn=delta status=variable vmaxpu=1.5 vminpu=0.92 daily=IP
New load.pip706312-2 phases=1 bus=5002009214.1.2.4 model=3 kv=0.24 kw=0.01096634703196347 pf=0.92 conn=delta status=variable vmaxpu=1.5 vminpu=0.92 daily=IP

New load.pip706352-1 phases=1 bus=5001660852.1.2.4 model=2 kv=0.22 kw=0.01096634703196347 pf=0.92 conn=delta status=variable vmaxpu=1.5 vminpu=0.92 daily=IP
New load.pip706352-2 phases=1 bus=5001660852.1.2.4 model=3 kv=0.22 kw=0.01096634703196347 pf=0.92 conn=delta status=variable vmaxpu=1.5 vminpu=0.92 daily=IP

New load.pip707008-1 phases=1 bus=5008931026.3.1.4 model=2 kv=0.22 kw=0.01070200913242009 pf=0.92 conn=delta status=variable vmaxpu=1.5 vminpu=0.92 daily=IP
New load.pip707008-2 phases=1 bus=5008931026.3.1.4 model=3 kv=0.22 kw=0.01070200913242009 pf=0.92 conn=delta status=variable vmaxpu=1.5 vminpu=0.92 daily=IP

New load.pip707393-1 phases=1 bus=5001661482.1.2.4 model=2 kv=0.24 kw=0.01096634703196347 pf=0.92 conn=delta status=variable vmaxpu=1.5 vminpu=0.92 daily=IP
New load.pip707393-2 phases=1 bus=5001661482.1.2.4 model=3 kv=0.24 kw=0.01096634703196347 pf=0.92 conn=delta status=variable vmaxpu=1.5 vminpu=0.92 daily=IP

New load.pip707561-1 phases=1 bus=5000872638.3.1.4 model=2 kv=0.22 kw=0.007221626712328766 pf=0.92 conn=delta status=variable vmaxpu=1.5 vminpu=0.92 daily=IP
New load.pip707561-2 phases=1 bus=5000872638.3.1.4 model=3 kv=0.22 kw=0.007221626712328766 pf=0.92 conn=delta status=variable vmaxpu=1.5 vminpu=0.92 daily=IP

New load.pip708498-1 phases=1 bus=5001661244.1.2.4 model=2 kv=0.24 kw=0.01096634703196347 pf=0.92 conn=delta status=variable vmaxpu=1.5 vminpu=0.92 daily=IP
New load.pip708498-2 phases=1 bus=5001661244.1.2.4 model=3 kv=0.24 kw=0.01096634703196347 pf=0.92 conn=delta status=variable vmaxpu=1.5 vminpu=0.92 daily=IP

New load.pip708670-1 phases=1 bus=5001673389.3.1.4 model=2 kv=0.22 kw=0.01284324200913242 pf=0.92 conn=delta status=variable vmaxpu=1.5 vminpu=0.92 daily=IP
New load.pip708670-2 phases=1 bus=5001673389.3.1.4 model=3 kv=0.22 kw=0.01284324200913242 pf=0.92 conn=delta status=variable vmaxpu=1.5 vminpu=0.92 daily=IP

New load.pip709155-1 phases=1 bus=5001660383.1.2.4 model=2 kv=0.24 kw=0.01096634703196347 pf=0.92 conn=delta status=variable vmaxpu=1.5 vminpu=0.92 daily=IP
New load.pip709155-2 phases=1 bus=5001660383.1.2.4 model=3 kv=0.24 kw=0.01096634703196347 pf=0.92 conn=delta status=variable vmaxpu=1.5 vminpu=0.92 daily=IP

New load.pip709804-1 phases=1 bus=5001672773.2.3.4 model=2 kv=0.22 kw=0.01872919520547945 pf=0.92 conn=delta status=variable vmaxpu=1.5 vminpu=0.92 daily=IP
New load.pip709804-2 phases=1 bus=5001672773.2.3.4 model=3 kv=0.22 kw=0.01872919520547945 pf=0.92 conn=delta status=variable vmaxpu=1.5 vminpu=0.92 daily=IP

New load.pip709933-1 phases=1 bus=5008909618.2.3.4 model=2 kv=0.22 kw=0.008027186073059361 pf=0.92 conn=delta status=variable vmaxpu=1.5 vminpu=0.92 daily=IP
New load.pip709933-2 phases=1 bus=5008909618.2.3.4 model=3 kv=0.22 kw=0.008027186073059361 pf=0.92 conn=delta status=variable vmaxpu=1.5 vminpu=0.92 daily=IP

New load.pip711774-1 phases=1 bus=5001660299.1.2.4 model=2 kv=0.24 kw=0.01096634703196347 pf=0.92 conn=delta status=variable vmaxpu=1.5 vminpu=0.92 daily=IP
New load.pip711774-2 phases=1 bus=5001660299.1.2.4 model=3 kv=0.24 kw=0.01096634703196347 pf=0.92 conn=delta status=variable vmaxpu=1.5 vminpu=0.92 daily=IP

New load.pip712385-1 phases=1 bus=5001672780.3.1.4 model=2 kv=0.22 kw=0.01872919520547945 pf=0.92 conn=delta status=variable vmaxpu=1.5 vminpu=0.92 daily=IP
New load.pip712385-2 phases=1 bus=5001672780.3.1.4 model=3 kv=0.22 kw=0.01872919520547945 pf=0.92 conn=delta status=variable vmaxpu=1.5 vminpu=0.92 daily=IP

New load.pip712602-1 phases=1 bus=5001658542.1.2.4 model=2 kv=0.22 kw=0.01096634703196347 pf=0.92 conn=delta status=variable vmaxpu=1.5 vminpu=0.92 daily=IP
New load.pip712602-2 phases=1 bus=5001658542.1.2.4 model=3 kv=0.22 kw=0.01096634703196347 pf=0.92 conn=delta status=variable vmaxpu=1.5 vminpu=0.92 daily=IP

New load.pip713449-1 phases=1 bus=5008847157.1.2.4 model=2 kv=0.22 kw=0.013378190639269408 pf=0.92 conn=delta status=variable vmaxpu=1.5 vminpu=0.92 daily=IP
New load.pip713449-2 phases=1 bus=5008847157.1.2.4 model=3 kv=0.22 kw=0.013378190639269408 pf=0.92 conn=delta status=variable vmaxpu=1.5 vminpu=0.92 daily=IP

New load.pip715199-1 phases=1 bus=5000871161.1.2.4 model=2 kv=0.22 kw=0.01070200913242009 pf=0.92 conn=delta status=variable vmaxpu=1.5 vminpu=0.92 daily=IP
New load.pip715199-2 phases=1 bus=5000871161.1.2.4 model=3 kv=0.22 kw=0.01070200913242009 pf=0.92 conn=delta status=variable vmaxpu=1.5 vminpu=0.92 daily=IP

New load.pip715265-1 phases=1 bus=5001661230.1.2.4 model=2 kv=0.24 kw=0.00641968607305936 pf=0.92 conn=delta status=variable vmaxpu=1.5 vminpu=0.92 daily=IP
New load.pip715265-2 phases=1 bus=5001661230.1.2.4 model=3 kv=0.24 kw=0.00641968607305936 pf=0.92 conn=delta status=variable vmaxpu=1.5 vminpu=0.92 daily=IP

New load.pip715599-1 phases=1 bus=5000872155.1.2.4 model=2 kv=0.22 kw=0.00882841324200913 pf=0.92 conn=delta status=variable vmaxpu=1.5 vminpu=0.92 daily=IP
New load.pip715599-2 phases=1 bus=5000872155.1.2.4 model=3 kv=0.22 kw=0.00882841324200913 pf=0.92 conn=delta status=variable vmaxpu=1.5 vminpu=0.92 daily=IP

New load.pip716606-1 phases=1 bus=5008909543.3.1.4 model=2 kv=0.22 kw=0.008027186073059361 pf=0.92 conn=delta status=variable vmaxpu=1.5 vminpu=0.92 daily=IP
New load.pip716606-2 phases=1 bus=5008909543.3.1.4 model=3 kv=0.22 kw=0.008027186073059361 pf=0.92 conn=delta status=variable vmaxpu=1.5 vminpu=0.92 daily=IP

New load.pip717008-1 phases=1 bus=5008930964.2.3.4 model=2 kv=0.22 kw=0.008027186073059361 pf=0.92 conn=delta status=variable vmaxpu=1.5 vminpu=0.92 daily=IP
New load.pip717008-2 phases=1 bus=5008930964.2.3.4 model=3 kv=0.22 kw=0.008027186073059361 pf=0.92 conn=delta status=variable vmaxpu=1.5 vminpu=0.92 daily=IP

New load.pip717351-1 phases=1 bus=5000871203.3.1.4 model=2 kv=0.22 kw=0.01070200913242009 pf=0.92 conn=delta status=variable vmaxpu=1.5 vminpu=0.92 daily=IP
New load.pip717351-2 phases=1 bus=5000871203.3.1.4 model=3 kv=0.22 kw=0.01070200913242009 pf=0.92 conn=delta status=variable vmaxpu=1.5 vminpu=0.92 daily=IP

New load.pip717591-1 phases=1 bus=5008933269.3.1.4 model=2 kv=0.22 kw=0.01070200913242009 pf=0.92 conn=delta status=variable vmaxpu=1.5 vminpu=0.92 daily=IP
New load.pip717591-2 phases=1 bus=5008933269.3.1.4 model=3 kv=0.22 kw=0.01070200913242009 pf=0.92 conn=delta status=variable vmaxpu=1.5 vminpu=0.92 daily=IP

New load.pip718369-1 phases=1 bus=5009176706.3.1.4 model=2 kv=0.22 kw=0.01284324200913242 pf=0.92 conn=delta status=variable vmaxpu=1.5 vminpu=0.92 daily=IP
New load.pip718369-2 phases=1 bus=5009176706.3.1.4 model=3 kv=0.22 kw=0.01284324200913242 pf=0.92 conn=delta status=variable vmaxpu=1.5 vminpu=0.92 daily=IP

New load.pip718889-1 phases=1 bus=5009176683.1.2.4 model=2 kv=0.22 kw=0.01284324200913242 pf=0.92 conn=delta status=variable vmaxpu=1.5 vminpu=0.92 daily=IP
New load.pip718889-2 phases=1 bus=5009176683.1.2.4 model=3 kv=0.22 kw=0.01284324200913242 pf=0.92 conn=delta status=variable vmaxpu=1.5 vminpu=0.92 daily=IP

New load.pip718995-1 phases=1 bus=5000871140.2.3.4 model=2 kv=0.22 kw=0.01070200913242009 pf=0.92 conn=delta status=variable vmaxpu=1.5 vminpu=0.92 daily=IP
New load.pip718995-2 phases=1 bus=5000871140.2.3.4 model=3 kv=0.22 kw=0.01070200913242009 pf=0.92 conn=delta status=variable vmaxpu=1.5 vminpu=0.92 daily=IP

New load.pip719080-1 phases=1 bus=5001660285.1.2.4 model=2 kv=0.24 kw=0.01096634703196347 pf=0.92 conn=delta status=variable vmaxpu=1.5 vminpu=0.92 daily=IP
New load.pip719080-2 phases=1 bus=5001660285.1.2.4 model=3 kv=0.24 kw=0.01096634703196347 pf=0.92 conn=delta status=variable vmaxpu=1.5 vminpu=0.92 daily=IP

New load.pip719400-1 phases=1 bus=5008909492.3.1.4 model=2 kv=0.22 kw=0.013378190639269408 pf=0.92 conn=delta status=variable vmaxpu=1.5 vminpu=0.92 daily=IP
New load.pip719400-2 phases=1 bus=5008909492.3.1.4 model=3 kv=0.22 kw=0.013378190639269408 pf=0.92 conn=delta status=variable vmaxpu=1.5 vminpu=0.92 daily=IP

New load.pip720647-1 phases=1 bus=5009176682.2.3.4 model=2 kv=0.22 kw=0.01284324200913242 pf=0.92 conn=delta status=variable vmaxpu=1.5 vminpu=0.92 daily=IP
New load.pip720647-2 phases=1 bus=5009176682.2.3.4 model=3 kv=0.22 kw=0.01284324200913242 pf=0.92 conn=delta status=variable vmaxpu=1.5 vminpu=0.92 daily=IP

New load.pip720678-1 phases=1 bus=5001668370.1.2.4 model=2 kv=0.22 kw=0.007221626712328766 pf=0.92 conn=delta status=variable vmaxpu=1.5 vminpu=0.92 daily=IP
New load.pip720678-2 phases=1 bus=5001668370.1.2.4 model=3 kv=0.22 kw=0.007221626712328766 pf=0.92 conn=delta status=variable vmaxpu=1.5 vminpu=0.92 daily=IP

New load.pip720782-1 phases=1 bus=5001660936.3.1.4 model=2 kv=0.22 kw=0.01096634703196347 pf=0.92 conn=delta status=variable vmaxpu=1.5 vminpu=0.92 daily=IP
New load.pip720782-2 phases=1 bus=5001660936.3.1.4 model=3 kv=0.22 kw=0.01096634703196347 pf=0.92 conn=delta status=variable vmaxpu=1.5 vminpu=0.92 daily=IP

New load.pip722393-1 phases=1 bus=5008929871.1.2.4 model=2 kv=0.22 kw=0.013378190639269408 pf=0.92 conn=delta status=variable vmaxpu=1.5 vminpu=0.92 daily=IP
New load.pip722393-2 phases=1 bus=5008929871.1.2.4 model=3 kv=0.22 kw=0.013378190639269408 pf=0.92 conn=delta status=variable vmaxpu=1.5 vminpu=0.92 daily=IP

New load.pip722394-1 phases=1 bus=5000873030.1.2.4 model=2 kv=0.22 kw=0.00882841324200913 pf=0.92 conn=delta status=variable vmaxpu=1.5 vminpu=0.92 daily=IP
New load.pip722394-2 phases=1 bus=5000873030.1.2.4 model=3 kv=0.22 kw=0.00882841324200913 pf=0.92 conn=delta status=variable vmaxpu=1.5 vminpu=0.92 daily=IP

New load.pip722411-1 phases=1 bus=5001660488.1.2.4 model=2 kv=0.22 kw=0.007221626712328766 pf=0.92 conn=delta status=variable vmaxpu=1.5 vminpu=0.92 daily=IP
New load.pip722411-2 phases=1 bus=5001660488.1.2.4 model=3 kv=0.22 kw=0.007221626712328766 pf=0.92 conn=delta status=variable vmaxpu=1.5 vminpu=0.92 daily=IP

New load.pip722916-1 phases=1 bus=5001537099.1.2.4 model=2 kv=0.22 kw=0.00882841324200913 pf=0.92 conn=delta status=variable vmaxpu=1.5 vminpu=0.92 daily=IP
New load.pip722916-2 phases=1 bus=5001537099.1.2.4 model=3 kv=0.22 kw=0.00882841324200913 pf=0.92 conn=delta status=variable vmaxpu=1.5 vminpu=0.92 daily=IP

New load.pip723774-1 phases=1 bus=5001658465.1.2.4 model=2 kv=0.24 kw=0.01096634703196347 pf=0.92 conn=delta status=variable vmaxpu=1.5 vminpu=0.92 daily=IP
New load.pip723774-2 phases=1 bus=5001658465.1.2.4 model=3 kv=0.24 kw=0.01096634703196347 pf=0.92 conn=delta status=variable vmaxpu=1.5 vminpu=0.92 daily=IP

New load.pip723963-1 phases=1 bus=5009176698.3.1.4 model=2 kv=0.22 kw=0.01284324200913242 pf=0.92 conn=delta status=variable vmaxpu=1.5 vminpu=0.92 daily=IP
New load.pip723963-2 phases=1 bus=5009176698.3.1.4 model=3 kv=0.22 kw=0.01284324200913242 pf=0.92 conn=delta status=variable vmaxpu=1.5 vminpu=0.92 daily=IP

New load.pip724262-1 phases=1 bus=5001661398.2.3.4 model=2 kv=0.22 kw=0.01096634703196347 pf=0.92 conn=delta status=variable vmaxpu=1.5 vminpu=0.92 daily=IP
New load.pip724262-2 phases=1 bus=5001661398.2.3.4 model=3 kv=0.22 kw=0.01096634703196347 pf=0.92 conn=delta status=variable vmaxpu=1.5 vminpu=0.92 daily=IP

New load.pip724263-1 phases=1 bus=5001661566.2.3.4 model=2 kv=0.22 kw=0.01096634703196347 pf=0.92 conn=delta status=variable vmaxpu=1.5 vminpu=0.92 daily=IP
New load.pip724263-2 phases=1 bus=5001661566.2.3.4 model=3 kv=0.22 kw=0.01096634703196347 pf=0.92 conn=delta status=variable vmaxpu=1.5 vminpu=0.92 daily=IP
