New line.ram2443697 phases=4 bus1=1810645.1.2.3.4 bus2=4002443697.1.2.3.4 length=0.017 units=km linecode=CABBTG07_4_3_4
New line.ram2443865 phases=3 bus1=1810981.1.2.4 bus2=4002443865.1.2.4 length=0.017 units=km linecode=CABBTG05_4_2_3
New line.ram2443872 phases=3 bus1=1810981.1.2.4 bus2=4002443872.1.2.4 length=0.017 units=km linecode=CABBTG04_4_2_3
New line.ram2443879 phases=3 bus1=1811023.2.3.4 bus2=4002443879.2.3.4 length=0.017 units=km linecode=CABBTG05_4_2_3
New line.ram2443886 phases=2 bus1=1811023.2.4 bus2=4002443886.2.4 length=0.017 units=km linecode=CABBTG01_4_1_2
New line.ram2443893 phases=3 bus1=1811023.1.2.4 bus2=4002443893.1.2.4 length=0.017 units=km linecode=CABBTG05_4_2_3
New line.ram2443900 phases=3 bus1=1811023.1.2.4 bus2=4002443900.1.2.4 length=0.017 units=km linecode=CABBTG05_4_2_3
New line.ram2443907 phases=2 bus1=1811030.1.4 bus2=4002443907.1.4 length=0.017 units=km linecode=CABBTG01_4_1_2
New line.ram2443914 phases=2 bus1=1811030.1.4 bus2=4002443914.1.4 length=0.017 units=km linecode=CABBTG01_4_1_2
New line.ram2443921 phases=3 bus1=1811030.2.3.4 bus2=4002443921.2.3.4 length=0.017 units=km linecode=CABBTG05_4_2_3
New line.ram2443928 phases=3 bus1=1811037.2.3.4 bus2=4002443928.2.3.4 length=0.017 units=km linecode=CABBTG05_4_2_3
New line.ram2443935 phases=3 bus1=1811037.3.1.4 bus2=4002443935.3.1.4 length=0.017 units=km linecode=CABBTG05_4_2_3
New line.ram2443942 phases=3 bus1=1811037.3.1.4 bus2=4002443942.3.1.4 length=0.017 units=km linecode=CABBTG05_4_2_3
New line.ram2443949 phases=3 bus1=1811037.2.3.4 bus2=4002443949.2.3.4 length=0.017 units=km linecode=CABBTG05_4_2_3
New line.ram2443956 phases=3 bus1=1811044.1.2.4 bus2=4002443956.1.2.4 length=0.017 units=km linecode=CABBTG05_4_2_3
New line.ram2443963 phases=3 bus1=1811044.3.1.4 bus2=4002443963.3.1.4 length=0.017 units=km linecode=CABBTG05_4_2_3
New line.ram2443970 phases=2 bus1=1811044.1.4 bus2=4002443970.1.4 length=0.017 units=km linecode=CABBTG01_4_1_2
New line.ram2443977 phases=3 bus1=1811044.1.2.4 bus2=4002443977.1.2.4 length=0.017 units=km linecode=CABBTG05_4_2_3
New line.ram2443984 phases=2 bus1=1811051.2.4 bus2=4002443984.2.4 length=0.017 units=km linecode=CABBTG01_4_1_2
New line.ram2443991 phases=3 bus1=1811051.1.2.4 bus2=4002443991.1.2.4 length=0.017 units=km linecode=CABBTG05_4_2_3
New line.ram2443998 phases=3 bus1=1811051.3.1.4 bus2=4002443998.3.1.4 length=0.017 units=km linecode=CABBTG05_4_2_3
New line.ram2444005 phases=3 bus1=1811051.3.1.4 bus2=4002444005.3.1.4 length=0.017 units=km linecode=CABBTG05_4_2_3
New line.ram2444012 phases=2 bus1=1811058.2.4 bus2=4002444012.2.4 length=0.017 units=km linecode=CABBTG01_4_1_2
New line.ram2444019 phases=3 bus1=1811058.2.3.4 bus2=4002444019.2.3.4 length=0.017 units=km linecode=CABBTG05_4_2_3
New line.ram2444026 phases=3 bus1=1811065.2.3.4 bus2=4002444026.2.3.4 length=0.017 units=km linecode=CABBTG05_4_2_3
New line.ram2444033 phases=3 bus1=1811065.2.3.4 bus2=4002444033.2.3.4 length=0.017 units=km linecode=CABBTG05_4_2_3
New line.ram2444040 phases=2 bus1=1811065.1.4 bus2=4002444040.1.4 length=0.017 units=km linecode=CABBTG01_4_1_2
New line.ram2444047 phases=3 bus1=1811072.3.1.4 bus2=4002444047.3.1.4 length=0.017 units=km linecode=CABBTG05_4_2_3
New line.ram2444054 phases=3 bus1=1811072.2.3.4 bus2=4002444054.2.3.4 length=0.017 units=km linecode=CABBTG05_4_2_3
New line.ram2444061 phases=3 bus1=1811072.2.3.4 bus2=4002444061.2.3.4 length=0.017 units=km linecode=CABBTG05_4_2_3
New line.ram2444068 phases=4 bus1=1811072.1.2.3.4 bus2=4002444068.1.2.3.4 length=0.017 units=km linecode=CABBTG06_4_3_4
New line.ram2444075 phases=3 bus1=1811072.1.2.4 bus2=4002444075.1.2.4 length=0.017 units=km linecode=CABBTG05_4_2_3
New line.ram2444089 phases=3 bus1=1811079.1.2.4 bus2=4002444089.1.2.4 length=0.017 units=km linecode=CABBTG05_4_2_3
New line.ram2444096 phases=3 bus1=1811079.3.1.4 bus2=4002444096.3.1.4 length=0.017 units=km linecode=CABBTG05_4_2_3
New line.ram2444103 phases=2 bus1=1811079.3.4 bus2=4002444103.3.4 length=0.017 units=km linecode=CABBTG01_4_1_2
New line.ram2444110 phases=3 bus1=1811086.3.1.4 bus2=4002444110.3.1.4 length=0.017 units=km linecode=CABBTG05_4_2_3
New line.ram2444117 phases=2 bus1=1811086.3.4 bus2=4002444117.3.4 length=0.017 units=km linecode=CABBTG01_4_1_2
New line.ram2444124 phases=2 bus1=1811093.1.4 bus2=4002444124.1.4 length=0.017 units=km linecode=CABBTG01_4_1_2
New line.ram2444131 phases=2 bus1=1811093.2.4 bus2=4002444131.2.4 length=0.017 units=km linecode=CABBTG01_4_1_2
New line.ram2444145 phases=3 bus1=1811107.2.3.4 bus2=4002444145.2.3.4 length=0.017 units=km linecode=CABBTG05_4_2_3
New line.ram2444152 phases=4 bus1=1811114.1.2.3.4 bus2=4002444152.1.2.3.4 length=0.017 units=km linecode=CABBTG06_4_3_4
New line.ram2444159 phases=3 bus1=1811114.2.3.4 bus2=4002444159.2.3.4 length=0.017 units=km linecode=CABBTG05_4_2_3
New line.ram2444166 phases=3 bus1=1811114.2.3.4 bus2=4002444166.2.3.4 length=0.017 units=km linecode=CABBTG05_4_2_3
New line.ram2444173 phases=3 bus1=1811114.1.2.4 bus2=4002444173.1.2.4 length=0.017 units=km linecode=CABBTG05_4_2_3
New line.ram2444180 phases=3 bus1=1811121.1.2.4 bus2=4002444180.1.2.4 length=0.017 units=km linecode=CABBTG05_4_2_3
New line.ram2444187 phases=2 bus1=1811128.3.4 bus2=4002444187.3.4 length=0.017 units=km linecode=CABBTG01_4_1_2
New line.ram2444194 phases=3 bus1=1811128.2.3.4 bus2=4002444194.2.3.4 length=0.017 units=km linecode=CABBTG05_4_2_3
New line.ram2444215 phases=3 bus1=1811198.3.1.4 bus2=4002444215.3.1.4 length=0.017 units=km linecode=CABBTG05_4_2_3
New line.ram2444222 phases=3 bus1=1811198.3.1.4 bus2=4002444222.3.1.4 length=0.017 units=km linecode=CABBTG05_4_2_3
New line.ram2444229 phases=3 bus1=1811198.1.2.4 bus2=4002444229.1.2.4 length=0.017 units=km linecode=CABBTG05_4_2_3
New line.ram2444236 phases=3 bus1=1811198.1.2.4 bus2=4002444236.1.2.4 length=0.017 units=km linecode=CABBTG05_4_2_3
New line.ram2444243 phases=4 bus1=1811205.1.2.3.4 bus2=4002444243.1.2.3.4 length=0.017 units=km linecode=CABBTG07_4_3_4
New line.ram2444250 phases=2 bus1=1811205.1.4 bus2=4002444250.1.4 length=0.017 units=km linecode=CABBTG01_4_1_2
New line.ram2444257 phases=3 bus1=1811205.2.3.4 bus2=4002444257.2.3.4 length=0.017 units=km linecode=CABBTG05_4_2_3
New line.ram2444264 phases=3 bus1=1811205.2.3.4 bus2=4002444264.2.3.4 length=0.017 units=km linecode=CABBTG05_4_2_3
New line.ram2444271 phases=3 bus1=1811212.3.1.4 bus2=4002444271.3.1.4 length=0.017 units=km linecode=CABBTG05_4_2_3
New line.ram2444278 phases=3 bus1=1811219.3.1.4 bus2=4002444278.3.1.4 length=0.017 units=km linecode=CABBTG05_4_2_3
New line.ram2444285 phases=3 bus1=1811219.3.1.4 bus2=4002444285.3.1.4 length=0.017 units=km linecode=CABBTG05_4_2_3
New line.ram2444292 phases=3 bus1=1811233.2.3.4 bus2=4002444292.2.3.4 length=0.017 units=km linecode=CABBTG05_4_2_3
New line.ram2444299 phases=3 bus1=1811233.2.3.4 bus2=4002444299.2.3.4 length=0.017 units=km linecode=CABBTG05_4_2_3
New line.ram2444306 phases=3 bus1=1811240.3.1.4 bus2=4002444306.3.1.4 length=0.017 units=km linecode=CABBTG05_4_2_3
New line.ram2444313 phases=3 bus1=1811240.3.1.4 bus2=4002444313.3.1.4 length=0.017 units=km linecode=CABBTG05_4_2_3
New line.ram2444320 phases=3 bus1=1811240.1.2.4 bus2=4002444320.1.2.4 length=0.017 units=km linecode=CABBTG05_4_2_3
New line.ram2444327 phases=3 bus1=1811240.1.2.4 bus2=4002444327.1.2.4 length=0.017 units=km linecode=CABBTG05_4_2_3
New line.ram2444334 phases=3 bus1=1811247.1.2.4 bus2=4002444334.1.2.4 length=0.017 units=km linecode=CABBTG05_4_2_3
New line.ram2444341 phases=3 bus1=1811247.3.1.4 bus2=4002444341.3.1.4 length=0.017 units=km linecode=CABBTG05_4_2_3
New line.ram2444348 phases=3 bus1=1811254.2.3.4 bus2=4002444348.2.3.4 length=0.017 units=km linecode=CABBTG05_4_2_3
New line.ram2444355 phases=3 bus1=1811254.2.3.4 bus2=4002444355.2.3.4 length=0.017 units=km linecode=CABBTG05_4_2_3
New line.ram2444404 phases=3 bus1=1811359.3.1.4 bus2=4002444404.3.1.4 length=0.017 units=km linecode=CABBTG05_4_2_3
New line.ram2444411 phases=3 bus1=1811359.3.1.4 bus2=4002444411.3.1.4 length=0.017 units=km linecode=CABBTG05_4_2_3
New line.ram2444418 phases=2 bus1=1811366.1.4 bus2=4002444418.1.4 length=0.017 units=km linecode=CABBTG01_4_1_2
New line.ram2444425 phases=3 bus1=1811373.2.3.4 bus2=4002444425.2.3.4 length=0.017 units=km linecode=CABBTG05_4_2_3
New line.ram2444432 phases=3 bus1=1811373.1.2.4 bus2=4002444432.1.2.4 length=0.017 units=km linecode=CABBTG05_4_2_3
New line.ram2444439 phases=3 bus1=1811373.2.3.4 bus2=4002444439.2.3.4 length=0.017 units=km linecode=CABBTG05_4_2_3
New line.ram2444446 phases=3 bus1=1811373.1.2.4 bus2=4002444446.1.2.4 length=0.017 units=km linecode=CABBTG05_4_2_3
New line.ram2444453 phases=3 bus1=1811373.1.2.4 bus2=4002444453.1.2.4 length=0.017 units=km linecode=CABBTG05_4_2_3
New line.ram2444460 phases=3 bus1=1811373.3.1.4 bus2=4002444460.3.1.4 length=0.017 units=km linecode=CABBTG05_4_2_3
New line.ram2444467 phases=3 bus1=1811373.1.2.4 bus2=4002444467.1.2.4 length=0.017 units=km linecode=CABBTG05_4_2_3
New line.ram2444474 phases=3 bus1=1811373.3.1.4 bus2=4002444474.3.1.4 length=0.017 units=km linecode=CABBTG05_4_2_3
New line.ram2444481 phases=3 bus1=1811380.2.3.4 bus2=4002444481.2.3.4 length=0.017 units=km linecode=CABBTG05_4_2_3
New line.ram2444495 phases=2 bus1=1811380.3.4 bus2=4002444495.3.4 length=0.017 units=km linecode=CABBTG01_4_1_2
New line.ram2444502 phases=3 bus1=1811380.1.2.4 bus2=4002444502.1.2.4 length=0.017 units=km linecode=CABBTG05_4_2_3
New line.ram2444509 phases=3 bus1=1811380.1.2.4 bus2=4002444509.1.2.4 length=0.017 units=km linecode=CABBTG05_4_2_3
New line.ram2444516 phases=3 bus1=1811380.2.3.4 bus2=4002444516.2.3.4 length=0.017 units=km linecode=CABBTG05_4_2_3
New line.ram2444523 phases=2 bus1=1811387.2.4 bus2=4002444523.2.4 length=0.017 units=km linecode=CABBTG01_4_1_2
New line.ram2444530 phases=3 bus1=1811387.1.2.4 bus2=4002444530.1.2.4 length=0.017 units=km linecode=CABBTG05_4_2_3
New line.ram2444537 phases=3 bus1=1811387.2.3.4 bus2=4002444537.2.3.4 length=0.017 units=km linecode=CABBTG05_4_2_3
New line.ram2444544 phases=3 bus1=1811387.1.2.4 bus2=4002444544.1.2.4 length=0.017 units=km linecode=CABBTG05_4_2_3
New line.ram2444551 phases=3 bus1=1811387.3.1.4 bus2=4002444551.3.1.4 length=0.017 units=km linecode=CABBTG05_4_2_3
New line.ram2444558 phases=3 bus1=1811387.1.2.4 bus2=4002444558.1.2.4 length=0.017 units=km linecode=CABBTG05_4_2_3
New line.ram2444565 phases=3 bus1=1811387.3.1.4 bus2=4002444565.3.1.4 length=0.017 units=km linecode=CABBTG05_4_2_3
New line.ram2444572 phases=4 bus1=1811387.1.2.3.4 bus2=4002444572.1.2.3.4 length=0.017 units=km linecode=CABBTG07_4_3_4
New line.ram2444579 phases=3 bus1=1811387.1.2.4 bus2=4002444579.1.2.4 length=0.017 units=km linecode=CABBTG05_4_2_3
New line.ram2444586 phases=3 bus1=1811394.3.1.4 bus2=4002444586.3.1.4 length=0.017 units=km linecode=CABBTG05_4_2_3
New line.ram2444593 phases=3 bus1=1811394.2.3.4 bus2=4002444593.2.3.4 length=0.017 units=km linecode=CABBTG05_4_2_3
New line.ram2444600 phases=3 bus1=1811394.3.1.4 bus2=4002444600.3.1.4 length=0.017 units=km linecode=CABBTG05_4_2_3
New line.ram2444607 phases=3 bus1=1811394.2.3.4 bus2=4002444607.2.3.4 length=0.017 units=km linecode=CABBTG05_4_2_3
New line.ram2444614 phases=3 bus1=1811408.3.1.4 bus2=4002444614.3.1.4 length=0.017 units=km linecode=CABBTG05_4_2_3
New line.ram2444621 phases=3 bus1=1811408.2.3.4 bus2=4002444621.2.3.4 length=0.017 units=km linecode=CABBTG05_4_2_3
New line.ram2444628 phases=3 bus1=1811408.1.2.4 bus2=4002444628.1.2.4 length=0.017 units=km linecode=CABBTG05_4_2_3
New line.ram2444635 phases=4 bus1=1811408.1.2.3.4 bus2=4002444635.1.2.3.4 length=0.017 units=km linecode=CABBTG11_4_3_4
New line.ram2444642 phases=3 bus1=1811408.3.1.4 bus2=4002444642.3.1.4 length=0.017 units=km linecode=CABBTG05_4_2_3
New line.ram2444649 phases=3 bus1=1811408.1.2.4 bus2=4002444649.1.2.4 length=0.017 units=km linecode=CABBTG05_4_2_3
New line.ram2444656 phases=2 bus1=1811408.2.4 bus2=4002444656.2.4 length=0.017 units=km linecode=CABBTG01_4_1_2
New line.ram2444663 phases=3 bus1=1811408.2.3.4 bus2=4002444663.2.3.4 length=0.017 units=km linecode=CABBTG05_4_2_3
New line.ram2444670 phases=2 bus1=1811422.1.4 bus2=4002444670.1.4 length=0.017 units=km linecode=CABBTG01_4_1_2
New line.ram2444677 phases=3 bus1=1811436.3.1.4 bus2=4002444677.3.1.4 length=0.017 units=km linecode=CABBTG05_4_2_3
New line.ram2444684 phases=3 bus1=1811436.2.3.4 bus2=4002444684.2.3.4 length=0.017 units=km linecode=CABBTG05_4_2_3
New line.ram2444691 phases=2 bus1=1811436.1.4 bus2=4002444691.1.4 length=0.017 units=km linecode=CABBTG01_4_1_2
New line.ram2444698 phases=2 bus1=1811436.3.4 bus2=4002444698.3.4 length=0.017 units=km linecode=CABBTG01_4_1_2
New line.ram2444705 phases=2 bus1=1811436.3.4 bus2=4002444705.3.4 length=0.017 units=km linecode=CABBTG01_4_1_2
New line.ram2444712 phases=3 bus1=1811443.1.2.4 bus2=4002444712.1.2.4 length=0.017 units=km linecode=CABBTG05_4_2_3
New line.ram2444719 phases=2 bus1=1811443.1.4 bus2=4002444719.1.4 length=0.017 units=km linecode=CABBTG01_4_1_2
New line.ram2444726 phases=3 bus1=1811443.1.2.4 bus2=4002444726.1.2.4 length=0.017 units=km linecode=CABBTG05_4_2_3
New line.ram2444733 phases=3 bus1=1811443.3.1.4 bus2=4002444733.3.1.4 length=0.017 units=km linecode=CABBTG05_4_2_3
New line.ram2444740 phases=3 bus1=1811450.3.1.4 bus2=4002444740.3.1.4 length=0.017 units=km linecode=CABBTG05_4_2_3
New line.ram2444747 phases=3 bus1=1811450.2.3.4 bus2=4002444747.2.3.4 length=0.017 units=km linecode=CABBTG05_4_2_3
New line.ram2444754 phases=3 bus1=1811450.2.3.4 bus2=4002444754.2.3.4 length=0.017 units=km linecode=CABBTG05_4_2_3
New line.ram2444761 phases=3 bus1=1811450.3.1.4 bus2=4002444761.3.1.4 length=0.017 units=km linecode=CABBTG05_4_2_3
New line.ram2444768 phases=4 bus1=1811457.1.2.3.4 bus2=4002444768.1.2.3.4 length=0.017 units=km linecode=CABBTG07_4_3_4
New line.ram2444775 phases=3 bus1=1811457.2.3.4 bus2=4002444775.2.3.4 length=0.017 units=km linecode=CABBTG05_4_2_3
New line.ram2444782 phases=3 bus1=1811457.3.1.4 bus2=4002444782.3.1.4 length=0.017 units=km linecode=CABBTG05_4_2_3
New line.ram2444789 phases=3 bus1=1811457.2.3.4 bus2=4002444789.2.3.4 length=0.017 units=km linecode=CABBTG05_4_2_3
New line.ram2444796 phases=3 bus1=1811457.3.1.4 bus2=4002444796.3.1.4 length=0.017 units=km linecode=CABBTG05_4_2_3
New line.ram2444803 phases=3 bus1=1811457.2.3.4 bus2=4002444803.2.3.4 length=0.017 units=km linecode=CABBTG05_4_2_3
New line.ram2444810 phases=2 bus1=1811457.2.4 bus2=4002444810.2.4 length=0.017 units=km linecode=CABBTG02_4_1_2
New line.ram2444817 phases=3 bus1=1811457.1.2.4 bus2=4002444817.1.2.4 length=0.017 units=km linecode=CABBTG05_4_2_3
New line.ram2444824 phases=3 bus1=1811464.2.3.4 bus2=4002444824.2.3.4 length=0.017 units=km linecode=CABBTG05_4_2_3
New line.ram2444831 phases=3 bus1=1811464.1.2.4 bus2=4002444831.1.2.4 length=0.017 units=km linecode=CABBTG05_4_2_3
New line.ram2444838 phases=3 bus1=1811464.2.3.4 bus2=4002444838.2.3.4 length=0.017 units=km linecode=CABBTG05_4_2_3
New line.ram2444845 phases=3 bus1=1811464.1.2.4 bus2=4002444845.1.2.4 length=0.017 units=km linecode=CABBTG05_4_2_3
New line.ram2444852 phases=3 bus1=1811471.1.2.4 bus2=4002444852.1.2.4 length=0.017 units=km linecode=CABBTG05_4_2_3
New line.ram2444859 phases=3 bus1=1811471.3.1.4 bus2=4002444859.3.1.4 length=0.017 units=km linecode=CABBTG05_4_2_3
New line.ram2444866 phases=3 bus1=1811471.1.2.4 bus2=4002444866.1.2.4 length=0.017 units=km linecode=CABBTG05_4_2_3
New line.ram2444873 phases=3 bus1=1811471.3.1.4 bus2=4002444873.3.1.4 length=0.017 units=km linecode=CABBTG05_4_2_3
New line.ram2444880 phases=3 bus1=1811478.2.3.4 bus2=4002444880.2.3.4 length=0.017 units=km linecode=CABBTG05_4_2_3
New line.ram2444887 phases=2 bus1=1811478.3.4 bus2=4002444887.3.4 length=0.017 units=km linecode=CABBTG01_4_1_2
New line.ram2444894 phases=3 bus1=1811478.2.3.4 bus2=4002444894.2.3.4 length=0.017 units=km linecode=CABBTG05_4_2_3
New line.ram2444901 phases=3 bus1=1811478.2.3.4 bus2=4002444901.2.3.4 length=0.017 units=km linecode=CABBTG05_4_2_3
New line.ram2444908 phases=3 bus1=1811478.1.2.4 bus2=4002444908.1.2.4 length=0.017 units=km linecode=CABBTG05_4_2_3
New line.ram2444915 phases=3 bus1=1811478.2.3.4 bus2=4002444915.2.3.4 length=0.017 units=km linecode=CABBTG05_4_2_3
New line.ram2444922 phases=2 bus1=1811478.1.4 bus2=4002444922.1.4 length=0.017 units=km linecode=CABBTG01_4_1_2
New line.ram2444929 phases=3 bus1=1811485.1.2.4 bus2=4002444929.1.2.4 length=0.017 units=km linecode=CABBTG05_4_2_3
New line.ram2444936 phases=3 bus1=1811485.1.2.4 bus2=4002444936.1.2.4 length=0.017 units=km linecode=CABBTG05_4_2_3
New line.ram2444943 phases=3 bus1=1811485.1.2.4 bus2=4002444943.1.2.4 length=0.017 units=km linecode=CABBTG05_4_2_3
New line.ram2444950 phases=2 bus1=1811485.2.4 bus2=4002444950.2.4 length=0.017 units=km linecode=CABBTG01_4_1_2
New line.ram2444957 phases=3 bus1=1811492.3.1.4 bus2=4002444957.3.1.4 length=0.017 units=km linecode=CABBTG05_4_2_3
New line.ram2444964 phases=3 bus1=1811492.3.1.4 bus2=4002444964.3.1.4 length=0.017 units=km linecode=CABBTG05_4_2_3
New line.ram2444971 phases=3 bus1=1811492.3.1.4 bus2=4002444971.3.1.4 length=0.017 units=km linecode=CABBTG05_4_2_3
New line.ram2444978 phases=3 bus1=1811492.1.2.4 bus2=4002444978.1.2.4 length=0.017 units=km linecode=CABBTG05_4_2_3
New line.ram2444985 phases=3 bus1=1811492.1.2.4 bus2=4002444985.1.2.4 length=0.017 units=km linecode=CABBTG05_4_2_3
New line.ram2444992 phases=3 bus1=1811499.2.3.4 bus2=4002444992.2.3.4 length=0.017 units=km linecode=CABBTG05_4_2_3
New line.ram2444999 phases=3 bus1=1811499.2.3.4 bus2=4002444999.2.3.4 length=0.017 units=km linecode=CABBTG05_4_2_3
New line.ram2445020 phases=2 bus1=1811590.2.4 bus2=4002445020.2.4 length=0.017 units=km linecode=CABBTG01_4_1_2
New line.ram2445027 phases=3 bus1=1811562.3.1.4 bus2=4002445027.3.1.4 length=0.017 units=km linecode=CABBTG05_4_2_3
New line.ram2445034 phases=3 bus1=1811562.3.1.4 bus2=4002445034.3.1.4 length=0.017 units=km linecode=CABBTG05_4_2_3
New line.ram2445041 phases=3 bus1=1811562.2.3.4 bus2=4002445041.2.3.4 length=0.017 units=km linecode=CABBTG05_4_2_3
New line.ram2445048 phases=3 bus1=1811562.2.3.4 bus2=4002445048.2.3.4 length=0.017 units=km linecode=CABBTG05_4_2_3
New line.ram2445055 phases=3 bus1=1811569.2.3.4 bus2=4002445055.2.3.4 length=0.017 units=km linecode=CABBTG05_4_2_3
New line.ram2445062 phases=3 bus1=1811569.3.1.4 bus2=4002445062.3.1.4 length=0.017 units=km linecode=CABBTG05_4_2_3
New line.ram2445069 phases=4 bus1=1811576.1.2.3.4 bus2=4002445069.1.2.3.4 length=0.017 units=km linecode=CABBTG06_4_3_4
New line.ram2445076 phases=2 bus1=1811569.2.4 bus2=4002445076.2.4 length=0.017 units=km linecode=CABBTG01_4_1_2
New line.ram2445083 phases=2 bus1=1811569.1.4 bus2=4002445083.1.4 length=0.017 units=km linecode=CABBTG01_4_1_2
New line.ram2445090 phases=3 bus1=1811569.3.1.4 bus2=4002445090.3.1.4 length=0.017 units=km linecode=CABBTG05_4_2_3
New line.ram2445097 phases=3 bus1=1811576.3.1.4 bus2=4002445097.3.1.4 length=0.017 units=km linecode=CABBTG05_4_2_3
New line.ram2445104 phases=3 bus1=1811576.2.3.4 bus2=4002445104.2.3.4 length=0.017 units=km linecode=CABBTG05_4_2_3
New line.ram2445111 phases=3 bus1=1811576.2.3.4 bus2=4002445111.2.3.4 length=0.017 units=km linecode=CABBTG05_4_2_3
New line.ram2445118 phases=3 bus1=1811576.2.3.4 bus2=4002445118.2.3.4 length=0.017 units=km linecode=CABBTG05_4_2_3
New line.ram2445125 phases=3 bus1=1811576.3.1.4 bus2=4002445125.3.1.4 length=0.017 units=km linecode=CABBTG05_4_2_3
New line.ram2445132 phases=2 bus1=1811576.2.4 bus2=4002445132.2.4 length=0.017 units=km linecode=CABBTG01_4_1_2
New line.ram2445139 phases=3 bus1=1811576.3.1.4 bus2=4002445139.3.1.4 length=0.017 units=km linecode=CABBTG05_4_2_3
New line.ram2445146 phases=3 bus1=1811576.1.2.4 bus2=4002445146.1.2.4 length=0.017 units=km linecode=CABBTG05_4_2_3
New line.ram2445153 phases=3 bus1=1811576.1.2.4 bus2=4002445153.1.2.4 length=0.017 units=km linecode=CABBTG05_4_2_3
New line.ram2445160 phases=2 bus1=1811583.3.4 bus2=4002445160.3.4 length=0.017 units=km linecode=CABBTG01_4_1_2
New line.ram2445167 phases=3 bus1=1811583.2.3.4 bus2=4002445167.2.3.4 length=0.017 units=km linecode=CABBTG05_4_2_3
New line.ram2445174 phases=2 bus1=1811583.2.4 bus2=4002445174.2.4 length=0.017 units=km linecode=CABBTG01_4_1_2
New line.ram2445181 phases=3 bus1=1811583.2.3.4 bus2=4002445181.2.3.4 length=0.017 units=km linecode=CABBTG05_4_2_3
New line.ram2445188 phases=3 bus1=1811583.3.1.4 bus2=4002445188.3.1.4 length=0.017 units=km linecode=CABBTG05_4_2_3
New line.ram2445195 phases=3 bus1=1811583.1.2.4 bus2=4002445195.1.2.4 length=0.017 units=km linecode=CABBTG05_4_2_3
New line.ram2445202 phases=3 bus1=1811583.1.2.4 bus2=4002445202.1.2.4 length=0.017 units=km linecode=CABBTG05_4_2_3
New line.ram2445209 phases=3 bus1=1811583.2.3.4 bus2=4002445209.2.3.4 length=0.017 units=km linecode=CABBTG05_4_2_3
New line.ram2445223 phases=3 bus1=1811597.2.3.4 bus2=4002445223.2.3.4 length=0.017 units=km linecode=CABBTG05_4_2_3
New line.ram2445230 phases=3 bus1=1811597.1.2.4 bus2=4002445230.1.2.4 length=0.017 units=km linecode=CABBTG05_4_2_3
New line.ram2445237 phases=3 bus1=1811597.2.3.4 bus2=4002445237.2.3.4 length=0.017 units=km linecode=CABBTG05_4_2_3
New line.ram2445244 phases=3 bus1=1811597.1.2.4 bus2=4002445244.1.2.4 length=0.017 units=km linecode=CABBTG05_4_2_3
New line.ram2445251 phases=3 bus1=1811618.2.3.4 bus2=4002445251.2.3.4 length=0.017 units=km linecode=CABBTG05_4_2_3
New line.ram2445258 phases=2 bus1=1811618.1.4 bus2=4002445258.1.4 length=0.017 units=km linecode=CABBTG01_4_1_2
New line.ram2445265 phases=3 bus1=1811618.2.3.4 bus2=4002445265.2.3.4 length=0.017 units=km linecode=CABBTG05_4_2_3
New line.ram2445272 phases=4 bus1=1811618.1.2.3.4 bus2=4002445272.1.2.3.4 length=0.017 units=km linecode=CABBTG07_4_3_4
New line.ram2445279 phases=2 bus1=1811618.1.4 bus2=4002445279.1.4 length=0.017 units=km linecode=CABBTG01_4_1_2
New line.ram2445286 phases=3 bus1=1811625.2.3.4 bus2=4002445286.2.3.4 length=0.017 units=km linecode=CABBTG05_4_2_3
New line.ram2445293 phases=3 bus1=1811625.1.2.4 bus2=4002445293.1.2.4 length=0.017 units=km linecode=CABBTG05_4_2_3
New line.ram2445300 phases=3 bus1=1811625.2.3.4 bus2=4002445300.2.3.4 length=0.017 units=km linecode=CABBTG05_4_2_3
New line.ram2445307 phases=3 bus1=1811625.1.2.4 bus2=4002445307.1.2.4 length=0.017 units=km linecode=CABBTG05_4_2_3
New line.ram2445314 phases=3 bus1=1811632.2.3.4 bus2=4002445314.2.3.4 length=0.017 units=km linecode=CABBTG05_4_2_3
New line.ram2445321 phases=3 bus1=1811632.2.3.4 bus2=4002445321.2.3.4 length=0.017 units=km linecode=CABBTG05_4_2_3
New line.ram2445328 phases=2 bus1=1811632.1.4 bus2=4002445328.1.4 length=0.017 units=km linecode=CABBTG01_4_1_2
New line.ram2445342 phases=3 bus1=1811639.1.2.4 bus2=4002445342.1.2.4 length=0.017 units=km linecode=CABBTG05_4_2_3
New line.ram2445349 phases=3 bus1=1811639.2.3.4 bus2=4002445349.2.3.4 length=0.017 units=km linecode=CABBTG05_4_2_3
New line.ram2445356 phases=3 bus1=1811639.1.2.4 bus2=4002445356.1.2.4 length=0.017 units=km linecode=CABBTG05_4_2_3
New line.ram2445363 phases=3 bus1=1811639.1.2.4 bus2=4002445363.1.2.4 length=0.017 units=km linecode=CABBTG05_4_2_3
New line.ram2445370 phases=3 bus1=1811639.2.3.4 bus2=4002445370.2.3.4 length=0.017 units=km linecode=CABBTG05_4_2_3
New line.ram2445377 phases=3 bus1=1811639.3.1.4 bus2=4002445377.3.1.4 length=0.017 units=km linecode=CABBTG05_4_2_3
New line.ram2445384 phases=3 bus1=1811639.3.1.4 bus2=4002445384.3.1.4 length=0.017 units=km linecode=CABBTG05_4_2_3
New line.ram2445391 phases=3 bus1=1811646.3.1.4 bus2=4002445391.3.1.4 length=0.017 units=km linecode=CABBTG05_4_2_3
New line.ram2445398 phases=3 bus1=1811646.2.3.4 bus2=4002445398.2.3.4 length=0.017 units=km linecode=CABBTG05_4_2_3
New line.ram2445405 phases=3 bus1=1811646.3.1.4 bus2=4002445405.3.1.4 length=0.017 units=km linecode=CABBTG05_4_2_3
New line.ram2445412 phases=3 bus1=1811646.2.3.4 bus2=4002445412.2.3.4 length=0.017 units=km linecode=CABBTG05_4_2_3
New line.ram2445419 phases=3 bus1=1811653.1.2.4 bus2=4002445419.1.2.4 length=0.017 units=km linecode=CABBTG05_4_2_3
New line.ram2445426 phases=3 bus1=1811653.2.3.4 bus2=4002445426.2.3.4 length=0.017 units=km linecode=CABBTG05_4_2_3
New line.ram2445433 phases=3 bus1=1811653.1.2.4 bus2=4002445433.1.2.4 length=0.017 units=km linecode=CABBTG05_4_2_3
New line.ram2445440 phases=3 bus1=1811653.2.3.4 bus2=4002445440.2.3.4 length=0.017 units=km linecode=CABBTG05_4_2_3
New line.ram2445447 phases=3 bus1=1811660.2.3.4 bus2=4002445447.2.3.4 length=0.017 units=km linecode=CABBTG05_4_2_3
New line.ram2445454 phases=3 bus1=1811660.1.2.4 bus2=4002445454.1.2.4 length=0.017 units=km linecode=CABBTG05_4_2_3
New line.ram2445461 phases=3 bus1=1811660.2.3.4 bus2=4002445461.2.3.4 length=0.017 units=km linecode=CABBTG05_4_2_3
New line.ram2445468 phases=3 bus1=1811660.3.1.4 bus2=4002445468.3.1.4 length=0.017 units=km linecode=CABBTG05_4_2_3
New line.ram2445475 phases=3 bus1=1811660.2.3.4 bus2=4002445475.2.3.4 length=0.017 units=km linecode=CABBTG05_4_2_3
New line.ram2445482 phases=3 bus1=1811660.2.3.4 bus2=4002445482.2.3.4 length=0.017 units=km linecode=CABBTG05_4_2_3
New line.ram2445489 phases=2 bus1=1811660.1.4 bus2=4002445489.1.4 length=0.017 units=km linecode=CABBTG01_4_1_2
New line.ram2445496 phases=2 bus1=1811660.1.4 bus2=4002445496.1.4 length=0.017 units=km linecode=CABBTG01_4_1_2
New line.ram2445503 phases=3 bus1=1811667.1.2.4 bus2=4002445503.1.2.4 length=0.017 units=km linecode=CABBTG05_4_2_3
New line.ram2445510 phases=2 bus1=1811667.3.4 bus2=4002445510.3.4 length=0.017 units=km linecode=CABBTG01_4_1_2
New line.ram2445517 phases=2 bus1=1811667.2.4 bus2=4002445517.2.4 length=0.017 units=km linecode=CABBTG01_4_1_2
New line.ram2445524 phases=3 bus1=1811674.3.1.4 bus2=4002445524.3.1.4 length=0.017 units=km linecode=CABBTG05_4_2_3
New line.ram2445531 phases=3 bus1=1811674.3.1.4 bus2=4002445531.3.1.4 length=0.017 units=km linecode=CABBTG05_4_2_3
New line.ram2445538 phases=3 bus1=1811674.1.2.4 bus2=4002445538.1.2.4 length=0.017 units=km linecode=CABBTG05_4_2_3
New line.ram2445545 phases=3 bus1=1811674.1.2.4 bus2=4002445545.1.2.4 length=0.017 units=km linecode=CABBTG05_4_2_3
New line.ram2445559 phases=3 bus1=1811681.2.3.4 bus2=4002445559.2.3.4 length=0.017 units=km linecode=CABBTG05_4_2_3
New line.ram2445566 phases=3 bus1=1811681.1.2.4 bus2=4002445566.1.2.4 length=0.017 units=km linecode=CABBTG05_4_2_3
New line.ram2445573 phases=3 bus1=1811681.2.3.4 bus2=4002445573.2.3.4 length=0.017 units=km linecode=CABBTG05_4_2_3
New line.ram2445601 phases=3 bus1=1811730.3.1.4 bus2=4002445601.3.1.4 length=0.017 units=km linecode=CABBTG05_4_2_3
New line.ram2445608 phases=2 bus1=1811730.1.4 bus2=4002445608.1.4 length=0.017 units=km linecode=CABBTG01_4_1_2
New line.ram2445615 phases=3 bus1=1811730.1.2.4 bus2=4002445615.1.2.4 length=0.017 units=km linecode=CABBTG05_4_2_3
New line.ram2445622 phases=3 bus1=1811730.1.2.4 bus2=4002445622.1.2.4 length=0.017 units=km linecode=CABBTG05_4_2_3
New line.ram2445629 phases=3 bus1=1811737.1.2.4 bus2=4002445629.1.2.4 length=0.017 units=km linecode=CABBTG05_4_2_3
New line.ram2445650 phases=3 bus1=1811737.1.2.4 bus2=4002445650.1.2.4 length=0.017 units=km linecode=CABBTG05_4_2_3
New line.ram2445664 phases=2 bus1=1811737.2.4 bus2=4002445664.2.4 length=0.017 units=km linecode=CABBTG01_4_1_2
New line.ram2445671 phases=3 bus1=1811737.3.1.4 bus2=4002445671.3.1.4 length=0.017 units=km linecode=CABBTG05_4_2_3
New line.ram2445678 phases=3 bus1=1811751.3.1.4 bus2=4002445678.3.1.4 length=0.017 units=km linecode=CABBTG05_4_2_3
New line.ram2445692 phases=3 bus1=1811744.2.3.4 bus2=4002445692.2.3.4 length=0.017 units=km linecode=CABBTG05_4_2_3
New line.ram2445699 phases=3 bus1=1811744.3.1.4 bus2=4002445699.3.1.4 length=0.017 units=km linecode=CABBTG05_4_2_3
New line.ram2445706 phases=3 bus1=1811744.1.2.4 bus2=4002445706.1.2.4 length=0.017 units=km linecode=CABBTG05_4_2_3
New line.ram2445713 phases=3 bus1=1811744.3.1.4 bus2=4002445713.3.1.4 length=0.017 units=km linecode=CABBTG05_4_2_3
New line.ram2445720 phases=3 bus1=1811744.1.2.4 bus2=4002445720.1.2.4 length=0.017 units=km linecode=CABBTG04_4_2_3
New line.ram2445734 phases=3 bus1=1811751.1.2.4 bus2=4002445734.1.2.4 length=0.017 units=km linecode=CABBTG05_4_2_3
New line.ram2445741 phases=3 bus1=1811751.1.2.4 bus2=4002445741.1.2.4 length=0.017 units=km linecode=CABBTG05_4_2_3
New line.ram2445755 phases=3 bus1=1811751.3.1.4 bus2=4002445755.3.1.4 length=0.017 units=km linecode=CABBTG05_4_2_3
New line.ram2445776 phases=3 bus1=1811758.1.2.4 bus2=4002445776.1.2.4 length=0.017 units=km linecode=CABBTG05_4_2_3
New line.ram2445783 phases=3 bus1=1811758.3.1.4 bus2=4002445783.3.1.4 length=0.017 units=km linecode=CABBTG05_4_2_3
New line.ram2445797 phases=3 bus1=1811758.3.1.4 bus2=4002445797.3.1.4 length=0.017 units=km linecode=CABBTG04_4_2_3
New line.ram2445804 phases=3 bus1=1811758.1.2.4 bus2=4002445804.1.2.4 length=0.017 units=km linecode=CABBTG05_4_2_3
New line.ram2445811 phases=4 bus1=1811758.1.2.3.4 bus2=4002445811.1.2.3.4 length=0.017 units=km linecode=CABBTG07_4_3_4
New line.ram2445818 phases=3 bus1=1811765.2.3.4 bus2=4002445818.2.3.4 length=0.017 units=km linecode=CABBTG05_4_2_3
New line.ram2445825 phases=3 bus1=1811765.1.2.4 bus2=4002445825.1.2.4 length=0.017 units=km linecode=CABBTG05_4_2_3
New line.ram2445832 phases=3 bus1=1811765.2.3.4 bus2=4002445832.2.3.4 length=0.017 units=km linecode=CABBTG05_4_2_3
New line.ram2445839 phases=3 bus1=1811765.1.2.4 bus2=4002445839.1.2.4 length=0.017 units=km linecode=CABBTG05_4_2_3
New line.ram2445846 phases=4 bus1=1811772.1.2.3.4 bus2=4002445846.1.2.3.4 length=0.017 units=km linecode=CABBTG07_4_3_4