New line.bt1523736 phases=3 bus1=1789659.1.2.4 bus2=1789666.1.2.4 length=0.0005 units=km linecode=BT307_BT307_7_2_1_3
New line.bt1523827 phases=3 bus1=1789827.1.2.4 bus2=1789834.1.2.4 length=0.0005 units=km linecode=BT307_BT307_7_2_1_3
New line.bt1523995 phases=3 bus1=1790149.1.2.4 bus2=1790156.1.2.4 length=0.0005 units=km linecode=BT307_BT307_7_2_1_3
New line.bt1524051 phases=3 bus1=1790261.1.2.4 bus2=1790268.1.2.4 length=0.0005 units=km linecode=BT307_BT307_7_2_1_3
New line.bt1524121 phases=3 bus1=1790401.1.2.4 bus2=1790408.1.2.4 length=0.0005 units=km linecode=BT307_BT307_7_2_1_3
New line.bt1524149 phases=3 bus1=1790457.1.2.4 bus2=1790464.1.2.4 length=0.0005 units=km linecode=BT307_BT307_7_2_1_3
New line.bt1524156 phases=3 bus1=1790471.1.2.4 bus2=1790478.1.2.4 length=0.0005 units=km linecode=BT307_BT307_7_2_1_3
New line.bt1524163 phases=3 bus1=1790485.1.2.4 bus2=1790492.1.2.4 length=0.0005 units=km linecode=BT307_BT307_7_2_1_3
New line.bt1524233 phases=3 bus1=1790625.1.2.4 bus2=1790632.1.2.4 length=0.0005 units=km linecode=BT307_BT307_7_2_1_3
New line.bt1524247 phases=3 bus1=1790653.1.2.4 bus2=1790660.1.2.4 length=0.0005 units=km linecode=BT307_BT307_7_2_1_3
New line.bt1524275 phases=3 bus1=1790709.1.2.4 bus2=1790716.1.2.4 length=0.0005 units=km linecode=BT307_BT307_7_2_1_3
New line.bt1524317 phases=3 bus1=1790793.1.2.4 bus2=1790800.1.2.4 length=0.0005 units=km linecode=BT307_BT307_7_2_1_3
New line.bt1524324 phases=3 bus1=1790807.1.2.4 bus2=1790814.1.2.4 length=0.0005 units=km linecode=BT307_BT307_7_2_1_3
New line.bt1524436 phases=4 bus1=1791017.1.2.3.4 bus2=1791024.1.2.3.4 length=0.0005 units=km linecode=BT307_BT307_7_3_1_4
New line.bt1524499 phases=3 bus1=1791143.1.2.4 bus2=1791150.1.2.4 length=0.0005 units=km linecode=BT307_BT307_7_2_1_3
New line.bt1524611 phases=4 bus1=1791353.1.2.3.4 bus2=1791360.1.2.3.4 length=0.0005 units=km linecode=BT309_BT309_7_3_1_4
New line.bt1524667 phases=3 bus1=1791465.1.2.4 bus2=1791472.1.2.4 length=0.0005 units=km linecode=BT307_BT307_7_2_1_3
New line.bt1524674 phases=4 bus1=1791479.1.2.3.4 bus2=1791486.1.2.3.4 length=0.0005 units=km linecode=BT307_BT307_7_3_1_4
New line.bt1524744 phases=3 bus1=1791591.1.2.4 bus2=1791598.1.2.4 length=0.0005 units=km linecode=BT307_BT307_7_2_1_3
New line.bt1524758 phases=3 bus1=1791619.1.2.4 bus2=1791626.1.2.4 length=0.0005 units=km linecode=BT508_BT508_7_2_1_3
New line.bt1524807 phases=3 bus1=1791717.1.2.4 bus2=1791724.1.2.4 length=0.0005 units=km linecode=BT307_BT307_7_2_1_3
New line.bt1524884 phases=3 bus1=1791871.1.2.4 bus2=1791878.1.2.4 length=0.0005 units=km linecode=BT508_BT508_7_2_1_3
New line.bt1524905 phases=3 bus1=1791899.1.2.4 bus2=1791906.1.2.4 length=0.0005 units=km linecode=BT307_BT307_7_2_1_3
New line.bt1524912 phases=3 bus1=1791913.1.2.4 bus2=1791920.1.2.4 length=0.0005 units=km linecode=BT307_BT307_7_2_1_3
New line.bt1524940 phases=3 bus1=1791969.1.2.4 bus2=1791976.1.2.4 length=0.0005 units=km linecode=BT307_BT307_7_2_1_3
New line.bt1524961 phases=3 bus1=1792011.1.2.4 bus2=1792018.1.2.4 length=0.0005 units=km linecode=BT307_BT307_7_2_1_3
New line.bt1525010 phases=3 bus1=1792109.1.2.4 bus2=1792116.1.2.4 length=0.0005 units=km linecode=BT307_BT307_7_2_1_3
New line.bt1525017 phases=3 bus1=1792123.1.2.4 bus2=1792130.1.2.4 length=0.0005 units=km linecode=BT307_BT307_7_2_1_3
New line.bt1525052 phases=3 bus1=1792193.1.2.4 bus2=1792200.1.2.4 length=0.0005 units=km linecode=BT307_BT307_7_2_1_3
New line.bt1525059 phases=3 bus1=1792207.1.2.4 bus2=1792214.1.2.4 length=0.0005 units=km linecode=BT307_BT307_7_2_1_3
New line.bt1525066 phases=3 bus1=1792221.1.2.4 bus2=1792228.1.2.4 length=0.0005 units=km linecode=BT307_BT307_7_2_1_3
New line.bt1525115 phases=3 bus1=1792319.1.2.4 bus2=1792326.1.2.4 length=0.0005 units=km linecode=BT307_BT307_7_2_1_3
New line.bt1525150 phases=3 bus1=1792389.1.2.4 bus2=1792396.1.2.4 length=0.0005 units=km linecode=BT307_BT307_7_2_1_3
New line.bt1525164 phases=3 bus1=1792417.1.2.4 bus2=1792424.1.2.4 length=0.0005 units=km linecode=BT307_BT307_7_2_1_3
New line.bt1525178 phases=3 bus1=1792445.1.2.4 bus2=1792452.1.2.4 length=0.0005 units=km linecode=BT307_BT307_7_2_1_3
New line.bt1525192 phases=3 bus1=1792473.1.2.4 bus2=1792480.1.2.4 length=0.0005 units=km linecode=BT307_BT307_7_2_1_3
New line.bt1525255 phases=3 bus1=1792599.1.2.4 bus2=1792606.1.2.4 length=0.0005 units=km linecode=BT521_BT521_7_2_1_3
New line.bt1525367 phases=3 bus1=1792823.1.2.4 bus2=1792830.1.2.4 length=0.0005 units=km linecode=BT307_BT307_7_2_1_3
New line.bt1525388 phases=3 bus1=1792851.1.2.4 bus2=1792858.1.2.4 length=0.0005 units=km linecode=BT307_BT307_7_2_1_3
New line.bt1525395 phases=3 bus1=1792865.1.2.4 bus2=1792872.1.2.4 length=0.0005 units=km linecode=BT307_BT307_7_2_1_3
New line.bt1525451 phases=3 bus1=1792977.1.2.4 bus2=1792984.1.2.4 length=0.0005 units=km linecode=BT307_BT307_7_2_1_3
New line.bt1525493 phases=3 bus1=1793061.1.2.4 bus2=1793068.1.2.4 length=0.0005 units=km linecode=BT307_BT307_7_2_1_3
New line.bt1525507 phases=3 bus1=1793089.1.2.4 bus2=1793096.1.2.4 length=0.0005 units=km linecode=BT307_BT307_7_2_1_3
New line.bt1525535 phases=3 bus1=1793145.1.2.4 bus2=1793152.1.2.4 length=0.0005 units=km linecode=BT307_BT307_7_2_1_3
New line.bt1525542 phases=3 bus1=1793159.1.2.4 bus2=1793166.1.2.4 length=0.0005 units=km linecode=BT307_BT307_7_2_1_3
New line.bt1525549 phases=3 bus1=1793173.1.2.4 bus2=1793180.1.2.4 length=0.0005 units=km linecode=BT307_BT307_7_2_1_3
New line.bt1525563 phases=3 bus1=1793201.1.2.4 bus2=1793208.1.2.4 length=0.0005 units=km linecode=BT307_BT307_7_2_1_3
New line.bt1525570 phases=3 bus1=1793215.1.2.4 bus2=1793222.1.2.4 length=0.0005 units=km linecode=BT307_BT307_7_2_1_3
New line.bt1525647 phases=3 bus1=1793369.1.2.4 bus2=1793376.1.2.4 length=0.0005 units=km linecode=BT307_BT307_7_2_1_3
New line.bt1525976 phases=3 bus1=1793985.1.2.4 bus2=1793992.1.2.4 length=0.0005 units=km linecode=BT307_BT307_7_2_1_3
New line.bt1525983 phases=3 bus1=1793999.1.2.4 bus2=1794006.1.2.4 length=0.0005 units=km linecode=BT307_BT307_7_2_1_3
New line.bt1526116 phases=3 bus1=1794237.1.2.4 bus2=1794244.1.2.4 length=0.0005 units=km linecode=BT307_BT307_7_2_1_3
New line.bt1526144 phases=3 bus1=1794293.1.2.4 bus2=1794300.1.2.4 length=0.0005 units=km linecode=BT307_BT307_7_2_1_3
New line.bt1526186 phases=3 bus1=1794377.1.2.4 bus2=1794384.1.2.4 length=0.0005 units=km linecode=BT307_BT307_7_2_1_3
New line.bt1526270 phases=3 bus1=1794531.1.2.4 bus2=1794538.1.2.4 length=0.0005 units=km linecode=BT307_BT307_7_2_1_3
New line.bt1526417 phases=3 bus1=1794769.1.2.4 bus2=1794776.1.2.4 length=0.0005 units=km linecode=BT307_BT307_7_2_1_3
New line.bt1526543 phases=4 bus1=1794993.1.2.3.4 bus2=1795000.1.2.3.4 length=0.0005 units=km linecode=BT307_BT307_7_3_1_4
New line.bt1527229 phases=3 bus1=1795994.1.2.4 bus2=1796001.1.2.4 length=0.0005 units=km linecode=BT307_BT307_7_2_1_3
New line.bt1527488 phases=3 bus1=1796365.1.2.4 bus2=1796372.1.2.4 length=0.0005 units=km linecode=BT513_BT513_7_2_1_3
New line.bt1527537 phases=4 bus1=1796456.1.2.3.4 bus2=1796463.1.2.3.4 length=0.0005 units=km linecode=BT307_BT307_7_3_1_4
New line.bt1527628 phases=3 bus1=1796638.1.2.4 bus2=1796645.1.2.4 length=0.0005 units=km linecode=BT307_BT307_7_2_1_3
New line.bt1528741 phases=3 bus1=1797828.1.2.4 bus2=1797835.1.2.4 length=0.0005 units=km linecode=BT307_BT307_7_2_1_3
New line.bt1528923 phases=3 bus1=1798136.1.2.4 bus2=1798143.1.2.4 length=0.0005 units=km linecode=BT307_BT307_7_2_1_3
New line.bt1528979 phases=4 bus1=1798248.1.2.3.4 bus2=1798255.1.2.3.4 length=0.0005 units=km linecode=BT307_BT307_7_3_1_4
New line.bt1528986 phases=3 bus1=1798262.1.2.4 bus2=1798269.1.2.4 length=0.0005 units=km linecode=BT307_BT307_7_2_1_3
New line.bt1529014 phases=3 bus1=1798318.1.2.4 bus2=1798325.1.2.4 length=0.0005 units=km linecode=BT307_BT307_7_2_1_3
New line.bt1539374 phases=4 bus1=1810358.1.2.3.4 bus2=1810365.1.2.3.4 length=0.0005 units=km linecode=BT513_BT513_7_3_1_4
New line.bt1539633 phases=4 bus1=1810638.1.2.3.4 bus2=1810631.1.2.3.4 length=0.032231 units=km linecode=BT108_BT108_7_3_1_4
New line.bt1539640 phases=4 bus1=1810645.1.2.3.4 bus2=1810638.1.2.3.4 length=0.034463 units=km linecode=BT108_BT108_7_3_1_4
New line.bt1539647 phases=4 bus1=1810652.1.2.3.4 bus2=1810645.1.2.3.4 length=0.032231 units=km linecode=BT108_BT108_7_3_1_4
New line.bt1539654 phases=4 bus1=1810624.1.2.3.4 bus2=1810680.1.2.3.4 length=0.0005 units=km linecode=BT307_BT307_7_3_1_4
New line.bt1539661 phases=4 bus1=1810659.1.2.3.4 bus2=1810652.1.2.3.4 length=0.033103 units=km linecode=BT108_BT108_7_3_1_4
New line.bt1539668 phases=4 bus1=1810666.1.2.3.4 bus2=1810659.1.2.3.4 length=0.032231 units=km linecode=BT108_BT108_7_3_1_4
New line.bt1539675 phases=4 bus1=1810673.1.2.3.4 bus2=1810666.1.2.3.4 length=0.009481999999999999 units=km linecode=BT107_BT107_7_3_1_4
New line.bt1539682 phases=4 bus1=1810680.1.2.3.4 bus2=1810673.1.2.3.4 length=0.029513 units=km linecode=BT803_BT803_4_3_4_4
New line.bt1539689 phases=4 bus1=1810680.1.2.3.4 bus2=1810687.1.2.3.4 length=0.03087 units=km linecode=BT803_BT803_4_3_4_4
New line.bt1539696 phases=4 bus1=1810687.1.2.3.4 bus2=1811009.1.2.3.4 length=0.029513 units=km linecode=BT803_BT803_4_3_4_4
New line.bt1539892 phases=4 bus1=1810953.1.2.3.4 bus2=3705454.1.2.3.4 length=0.026911 units=km linecode=BT810_BT810_4_3_4_4
New line.bt1539899 phases=4 bus1=1810960.1.2.3.4 bus2=1810953.1.2.3.4 length=0.027188 units=km linecode=BT107_BT107_7_3_1_4
New line.bt1539906 phases=4 bus1=1810967.1.2.3.4 bus2=1810960.1.2.3.4 length=0.030577 units=km linecode=BT107_BT107_7_3_1_4
New line.bt1539913 phases=4 bus1=1810967.1.2.3.4 bus2=1810988.1.2.3.4 length=0.044122999999999996 units=km linecode=BT107_BT107_7_3_1_4
New line.bt1539920 phases=4 bus1=1810974.1.2.3.4 bus2=1810967.1.2.3.4 length=0.009215 units=km linecode=BT107_BT107_7_3_1_4
New line.bt1539927 phases=4 bus1=1810981.1.2.3.4 bus2=1810974.1.2.3.4 length=0.036215000000000004 units=km linecode=BT107_BT107_7_3_1_4
New line.bt1539934 phases=4 bus1=1810988.1.2.3.4 bus2=3009801.1.2.3.4 length=0.033222999999999996 units=km linecode=BT107_BT107_7_3_1_4
New line.bt1539941 phases=4 bus1=1810995.1.2.3.4 bus2=1810981.1.2.3.4 length=0.036215000000000004 units=km linecode=BT107_BT107_7_3_1_4
New line.bt1539948 phases=4 bus1=1811002.1.2.3.4 bus2=176036693.1.2.3.4 length=0.027280000000000002 units=km linecode=BT107_BT107_7_3_1_4
New line.bt1539955 phases=4 bus1=1811016.1.2.3.4 bus2=1811002.1.2.3.4 length=0.025046 units=km linecode=BT107_BT107_7_3_1_4
New line.bt1539962 phases=4 bus1=1811009.1.2.3.4 bus2=1811016.1.2.3.4 length=0.010435 units=km linecode=BT107_BT107_7_3_1_4
New line.bt1539969 phases=4 bus1=1811030.1.2.3.4 bus2=1810995.1.2.3.4 length=0.032262 units=km linecode=BT108_BT108_7_3_1_4
New line.bt1539976 phases=4 bus1=1811037.1.2.3.4 bus2=1811023.1.2.3.4 length=0.031304 units=km linecode=BT107_BT107_7_3_1_4
New line.bt1539983 phases=4 bus1=1811044.1.2.3.4 bus2=1811030.1.2.3.4 length=0.032262 units=km linecode=BT108_BT108_7_3_1_4
New line.bt1539990 phases=4 bus1=1811051.1.2.3.4 bus2=1811037.1.2.3.4 length=0.032262 units=km linecode=BT107_BT107_7_3_1_4
New line.bt1539997 phases=4 bus1=1811058.1.2.3.4 bus2=1811044.1.2.3.4 length=0.031304 units=km linecode=BT108_BT108_7_3_1_4
New line.bt1540004 phases=4 bus1=1810946.1.2.3.4 bus2=1811058.1.2.3.4 length=0.0005 units=km linecode=BT309_BT309_7_3_1_4
New line.bt1540011 phases=4 bus1=1811058.1.2.3.4 bus2=1811072.1.2.3.4 length=0.032262 units=km linecode=BT108_BT108_7_3_1_4
New line.bt1540018 phases=4 bus1=1811065.1.2.3.4 bus2=1811051.1.2.3.4 length=0.030348 units=km linecode=BT107_BT107_7_3_1_4
New line.bt1540025 phases=4 bus1=1811072.1.2.3.4 bus2=1811086.1.2.3.4 length=0.032262 units=km linecode=BT108_BT108_7_3_1_4
New line.bt1540032 phases=4 bus1=1811079.1.2.3.4 bus2=1811065.1.2.3.4 length=0.032262 units=km linecode=BT107_BT107_7_3_1_4
New line.bt1540046 phases=4 bus1=1811086.1.2.3.4 bus2=1811114.1.2.3.4 length=0.032555 units=km linecode=BT108_BT108_7_3_1_4
New line.bt1540053 phases=4 bus1=1811093.1.2.3.4 bus2=1811100.1.2.3.4 length=0.010045 units=km linecode=BT107_BT107_7_3_1_4
New line.bt1540060 phases=4 bus1=1811100.1.2.3.4 bus2=1811121.1.2.3.4 length=0.010192999999999999 units=km linecode=BT107_BT107_7_3_1_4
New line.bt1540067 phases=4 bus1=1811107.1.2.3.4 bus2=1811093.1.2.3.4 length=0.022348 units=km linecode=BT107_BT107_7_3_1_4
New line.bt1540074 phases=4 bus1=1811114.1.2.3.4 bus2=1811107.1.2.3.4 length=0.022549 units=km linecode=BT107_BT107_7_3_1_4
New line.bt1540081 phases=4 bus1=1811114.1.2.3.4 bus2=1811128.1.2.3.4 length=0.035673 units=km linecode=BT107_BT107_7_3_1_4
New line.bt1540088 phases=4 bus1=1811121.1.2.3.4 bus2=1811079.1.2.3.4 length=0.038579 units=km linecode=BT107_BT107_7_3_1_4
New line.bt1540095 phases=4 bus1=1811121.1.2.3.4 bus2=1811135.1.2.3.4 length=0.035883000000000005 units=km linecode=BT107_BT107_7_3_1_4
New line.bt1540102 phases=4 bus1=1811352.1.2.3.4 bus2=1811401.1.2.3.4 length=0.031763 units=km linecode=BT107_BT107_7_3_1_4
New line.bt1540116 phases=4 bus1=1811142.1.2.3.4 bus2=1811149.1.2.3.4 length=0.0005 units=km linecode=BT312_BT312_7_3_1_4
New line.bt1540137 phases=4 bus1=1811198.1.2.3.4 bus2=1811191.1.2.3.4 length=0.033521999999999996 units=km linecode=BT108_BT108_7_3_1_4
New line.bt1540144 phases=4 bus1=1811205.1.2.3.4 bus2=1811198.1.2.3.4 length=0.034694 units=km linecode=BT108_BT108_7_3_1_4
New line.bt1540151 phases=4 bus1=1811212.1.2.3.4 bus2=1811205.1.2.3.4 length=0.034694 units=km linecode=BT108_BT108_7_3_1_4
New line.bt1540158 phases=4 bus1=1811212.1.2.3.4 bus2=1811226.1.2.3.4 length=0.009429 units=km linecode=BT107_BT107_7_3_1_4
New line.bt1540165 phases=4 bus1=1811219.1.2.3.4 bus2=1811212.1.2.3.4 length=0.030577 units=km linecode=BT108_BT108_7_3_1_4
New line.bt1540172 phases=4 bus1=1811233.1.2.3.4 bus2=1811219.1.2.3.4 length=0.031558 units=km linecode=BT108_BT108_7_3_1_4
New line.bt1540179 phases=4 bus1=1811184.1.2.3.4 bus2=1811233.1.2.3.4 length=0.0005 units=km linecode=BT307_BT307_7_3_1_4
New line.bt1540186 phases=4 bus1=1811233.1.2.3.4 bus2=1811240.1.2.3.4 length=0.031558 units=km linecode=BT108_BT108_7_3_1_4
New line.bt1540193 phases=4 bus1=1811240.1.2.3.4 bus2=1811254.1.2.3.4 length=0.031558 units=km linecode=BT108_BT108_7_3_1_4
New line.bt1540200 phases=4 bus1=1811254.1.2.3.4 bus2=1811247.1.2.3.4 length=0.025166 units=km linecode=BT108_BT108_7_3_1_4
New line.bt1540249 phases=4 bus1=1811366.1.2.3.4 bus2=1811352.1.2.3.4 length=0.009215 units=km linecode=BT107_BT107_7_3_1_4
New line.bt1540256 phases=4 bus1=1811373.1.2.3.4 bus2=1811366.1.2.3.4 length=0.033716 units=km linecode=BT108_BT108_7_3_1_4
New line.bt1540263 phases=4 bus1=1811380.1.2.3.4 bus2=1811359.1.2.3.4 length=0.019225000000000003 units=km linecode=BT107_BT107_7_3_1_4
New line.bt1540270 phases=4 bus1=1811387.1.2.3.4 bus2=1811373.1.2.3.4 length=0.034694 units=km linecode=BT108_BT108_7_3_1_4
New line.bt1540277 phases=4 bus1=1811394.1.2.3.4 bus2=1811387.1.2.3.4 length=0.035673 units=km linecode=BT108_BT108_7_3_1_4
New line.bt1540284 phases=4 bus1=1811408.1.2.3.4 bus2=1811394.1.2.3.4 length=0.03254 units=km linecode=BT108_BT108_7_3_1_4
New line.bt1540291 phases=4 bus1=1811415.1.2.3.4 bus2=1811380.1.2.3.4 length=0.018428999999999997 units=km linecode=BT107_BT107_7_3_1_4
New line.bt1540298 phases=4 bus1=1811422.1.2.3.4 bus2=1811408.1.2.3.4 length=0.033716 units=km linecode=BT108_BT108_7_3_1_4
New line.bt1540305 phases=4 bus1=1811429.1.2.3.4 bus2=1811415.1.2.3.4 length=0.007068 units=km linecode=BT107_BT107_7_3_1_4
New line.bt1540312 phases=4 bus1=1811429.1.2.3.4 bus2=1811422.1.2.3.4 length=0.008058 units=km linecode=BT108_BT108_7_3_1_4
New line.bt1540319 phases=4 bus1=1811429.1.2.3.4 bus2=1811464.1.2.3.4 length=0.023332000000000002 units=km linecode=BT107_BT107_7_3_1_4
New line.bt1540326 phases=4 bus1=1811436.1.2.3.4 bus2=1811429.1.2.3.4 length=0.024502 units=km linecode=BT107_BT107_7_3_1_4
New line.bt1540333 phases=4 bus1=1811443.1.2.3.4 bus2=1811436.1.2.3.4 length=0.030577 units=km linecode=BT108_BT108_7_3_1_4
New line.bt1540340 phases=4 bus1=1811345.1.2.3.4 bus2=1811443.1.2.3.4 length=0.0005 units=km linecode=BT513_BT513_7_3_1_4
New line.bt1540347 phases=4 bus1=1811443.1.2.3.4 bus2=1811457.1.2.3.4 length=0.033521999999999996 units=km linecode=BT108_BT108_7_3_1_4
New line.bt1540354 phases=4 bus1=1811457.1.2.3.4 bus2=1811471.1.2.3.4 length=0.029816 units=km linecode=BT108_BT108_7_3_1_4
New line.bt1540361 phases=4 bus1=1811471.1.2.3.4 bus2=1811478.1.2.3.4 length=0.029412 units=km linecode=BT108_BT108_7_3_1_4
New line.bt1540368 phases=4 bus1=1811478.1.2.3.4 bus2=1811485.1.2.3.4 length=0.029598 units=km linecode=BT108_BT108_7_3_1_4
New line.bt1540375 phases=4 bus1=1811485.1.2.3.4 bus2=1811492.1.2.3.4 length=0.029598 units=km linecode=BT107_BT107_7_3_1_4
New line.bt1540382 phases=4 bus1=1811492.1.2.3.4 bus2=1811450.1.2.3.4 length=0.026462 units=km linecode=BT107_BT107_7_3_1_4
New line.bt1540389 phases=4 bus1=1811492.1.2.3.4 bus2=1811499.1.2.3.4 length=0.029598 units=km linecode=BT107_BT107_7_3_1_4
New line.bt1540431 phases=4 bus1=1811548.1.2.3.4 bus2=1811541.1.2.3.4 length=0.037087 units=km linecode=BT803_BT803_4_3_4_4
New line.bt1540438 phases=4 bus1=1811590.1.2.3.4 bus2=1811548.1.2.3.4 length=0.027643 units=km linecode=BT803_BT803_4_3_4_4
New line.bt1540445 phases=4 bus1=1811548.1.2.3.4 bus2=1811562.1.2.3.4 length=0.011656000000000001 units=km linecode=BT803_BT803_4_3_4_4
New line.bt1540452 phases=4 bus1=1811562.1.2.3.4 bus2=1811569.1.2.3.4 length=0.034506 units=km linecode=BT803_BT803_4_3_4_4
New line.bt1540459 phases=4 bus1=1811569.1.2.3.4 bus2=160118178.1.2.3.4 length=0.034694 units=km linecode=BT803_BT803_4_3_4_4
New line.bt1540466 phases=4 bus1=1811583.1.2.3.4 bus2=1811576.1.2.3.4 length=0.035673 units=km linecode=BT108_BT108_7_3_1_4
New line.bt1540473 phases=4 bus1=1811597.1.2.3.4 bus2=1811555.1.2.3.4 length=0.030577 units=km linecode=BT107_BT107_7_3_1_4
New line.bt1540480 phases=4 bus1=1811604.1.2.3.4 bus2=1811583.1.2.3.4 length=0.034694 units=km linecode=BT108_BT108_7_3_1_4
New line.bt1540487 phases=4 bus1=1811611.1.2.3.4 bus2=1811597.1.2.3.4 length=0.006320999999999999 units=km linecode=BT107_BT107_7_3_1_4
New line.bt1540494 phases=4 bus1=1811611.1.2.3.4 bus2=1811604.1.2.3.4 length=0.00608 units=km linecode=BT108_BT108_7_3_1_4
New line.bt1540501 phases=4 bus1=1811611.1.2.3.4 bus2=1811646.1.2.3.4 length=0.023332000000000002 units=km linecode=BT107_BT107_7_3_1_4
New line.bt1540508 phases=4 bus1=1811618.1.2.3.4 bus2=1811611.1.2.3.4 length=0.025696 units=km linecode=BT107_BT107_7_3_1_4
New line.bt1540515 phases=4 bus1=1811625.1.2.3.4 bus2=1811618.1.2.3.4 length=0.031558 units=km linecode=BT108_BT108_7_3_1_4
New line.bt1540522 phases=4 bus1=1811534.1.2.3.4 bus2=1811625.1.2.3.4 length=0.0005 units=km linecode=BT307_BT307_7_3_1_4
New line.bt1540529 phases=4 bus1=1811625.1.2.3.4 bus2=1811639.1.2.3.4 length=0.031558 units=km linecode=BT108_BT108_7_3_1_4
New line.bt1540536 phases=4 bus1=1811639.1.2.3.4 bus2=1811653.1.2.3.4 length=0.030577 units=km linecode=BT108_BT108_7_3_1_4
New line.bt1540543 phases=4 bus1=1811653.1.2.3.4 bus2=1811660.1.2.3.4 length=0.029412 units=km linecode=BT108_BT108_7_3_1_4
New line.bt1540550 phases=4 bus1=1811660.1.2.3.4 bus2=1811667.1.2.3.4 length=0.029598 units=km linecode=BT108_BT108_7_3_1_4
New line.bt1540557 phases=4 bus1=1811667.1.2.3.4 bus2=1811674.1.2.3.4 length=0.028427 units=km linecode=BT108_BT108_7_3_1_4
New line.bt1540564 phases=4 bus1=1811674.1.2.3.4 bus2=1811632.1.2.3.4 length=0.029598 units=km linecode=BT107_BT107_7_3_1_4
New line.bt1540571 phases=4 bus1=1811674.1.2.3.4 bus2=1811681.1.2.3.4 length=0.028427 units=km linecode=BT107_BT107_7_3_1_4
New line.bt1540592 phases=4 bus1=1811730.1.2.3.4 bus2=1811723.1.2.3.4 length=0.031383 units=km linecode=BT108_BT108_7_3_1_4
New line.bt1540599 phases=4 bus1=1811737.1.2.3.4 bus2=1811730.1.2.3.4 length=0.02862 units=km linecode=BT803_BT803_4_3_4_4
New line.bt1540606 phases=4 bus1=1811744.1.2.3.4 bus2=1811737.1.2.3.4 length=0.03254 units=km linecode=BT803_BT803_4_3_4_4
New line.bt1540613 phases=4 bus1=1811716.1.2.3.4 bus2=1811744.1.2.3.4 length=0.0005 units=km linecode=BT307_BT307_7_3_1_4
New line.bt1540620 phases=4 bus1=1811744.1.2.3.4 bus2=1811751.1.2.3.4 length=0.029598 units=km linecode=BT803_BT803_4_3_4_4
New line.bt1540627 phases=4 bus1=1811751.1.2.3.4 bus2=1811758.1.2.3.4 length=0.029598 units=km linecode=BT803_BT803_4_3_4_4
New line.bt1540634 phases=4 bus1=1811758.1.2.3.4 bus2=1811765.1.2.3.4 length=0.029598 units=km linecode=BT803_BT803_4_3_4_4
New line.bt1540641 phases=4 bus1=1811765.1.2.3.4 bus2=1811772.1.2.3.4 length=0.030577 units=km linecode=BT803_BT803_4_3_4_4
New line.bt1540648 phases=4 bus1=151673255.1.2.3.4 bus2=1811786.1.2.3.4 length=0.00608 units=km linecode=BT803_BT803_4_3_4_4
New line.bt1540662 phases=4 bus1=1811786.1.2.3.4 bus2=1811793.1.2.3.4 length=0.035673 units=km linecode=BT803_BT803_4_3_4_4
New line.bt1540669 phases=4 bus1=1811814.1.2.3.4 bus2=1811807.1.2.3.4 length=0.027643 units=km linecode=BT803_BT803_4_3_4_4
New line.bt1540676 phases=4 bus1=1811821.1.2.3.4 bus2=1811814.1.2.3.4 length=0.028427 units=km linecode=BT803_BT803_4_3_4_4
New line.bt1540683 phases=4 bus1=1811828.1.2.3.4 bus2=1811821.1.2.3.4 length=0.02862 units=km linecode=BT803_BT803_4_3_4_4
New line.bt1540690 phases=4 bus1=1811800.1.2.3.4 bus2=1811828.1.2.3.4 length=0.0005 units=km linecode=BT509_BT509_7_3_1_4
New line.bt1540697 phases=4 bus1=1811828.1.2.3.4 bus2=1811835.1.2.3.4 length=0.029598 units=km linecode=BT803_BT803_4_3_4_4
New line.bt1540704 phases=4 bus1=1811835.1.2.3.4 bus2=1811842.1.2.3.4 length=0.029598 units=km linecode=BT803_BT803_4_3_4_4
New line.bt1540711 phases=4 bus1=1811842.1.2.3.4 bus2=1811849.1.2.3.4 length=0.027444 units=km linecode=BT803_BT803_4_3_4_4
New line.bt1540718 phases=4 bus1=1811849.1.2.3.4 bus2=1811856.1.2.3.4 length=0.02862 units=km linecode=BT803_BT803_4_3_4_4
New line.bt1540725 phases=4 bus1=1811856.1.2.3.4 bus2=1811870.1.2.3.4 length=0.009429 units=km linecode=BT803_BT803_4_3_4_4
New line.bt1540732 phases=4 bus1=1811870.1.2.3.4 bus2=1811863.1.2.3.4 length=0.03254 units=km linecode=BT803_BT803_4_3_4_4
New line.bt1540739 phases=4 bus1=1811870.1.2.3.4 bus2=1811877.1.2.3.4 length=0.030577 units=km linecode=BT803_BT803_4_3_4_4
New line.bt1540767 phases=4 bus1=1811919.1.2.3.4 bus2=1811933.1.2.3.4 length=0.02862 units=km linecode=BT803_BT803_4_3_4_4
New line.bt1540774 phases=4 bus1=1811926.1.2.3.4 bus2=1811919.1.2.3.4 length=0.00894 units=km linecode=BT803_BT803_4_3_4_4
New line.bt1540781 phases=4 bus1=1811940.1.2.3.4 bus2=1811926.1.2.3.4 length=0.027643 units=km linecode=BT803_BT803_4_3_4_4
New line.bt1540788 phases=4 bus1=1811947.1.2.3.4 bus2=1811940.1.2.3.4 length=0.029598 units=km linecode=BT803_BT803_4_3_4_4
New line.bt1540795 phases=4 bus1=1811954.1.2.3.4 bus2=1811947.1.2.3.4 length=0.02862 units=km linecode=BT803_BT803_4_3_4_4
New line.bt1540802 phases=4 bus1=1811912.1.2.3.4 bus2=1811954.1.2.3.4 length=0.0005 units=km linecode=BT508_BT508_7_3_1_4
New line.bt1540809 phases=4 bus1=1811954.1.2.3.4 bus2=1811961.1.2.3.4 length=0.029816 units=km linecode=BT803_BT803_4_3_4_4
New line.bt1540816 phases=4 bus1=1811961.1.2.3.4 bus2=1811968.1.2.3.4 length=0.027444 units=km linecode=BT803_BT803_4_3_4_4
New line.bt1540823 phases=4 bus1=1811968.1.2.3.4 bus2=1811975.1.2.3.4 length=0.029598 units=km linecode=BT803_BT803_4_3_4_4
New line.bt1540830 phases=4 bus1=1811975.1.2.3.4 bus2=1811982.1.2.3.4 length=0.02862 units=km linecode=BT803_BT803_4_3_4_4
New line.bt1540837 phases=4 bus1=1811996.1.2.3.4 bus2=151662991.1.2.3.4 length=0.0072759999999999995 units=km linecode=BT803_BT803_4_3_4_4
New line.bt1540858 phases=4 bus1=1811996.1.2.3.4 bus2=1812003.1.2.3.4 length=0.025481 units=km linecode=BT803_BT803_4_3_4_4
New line.bt1540865 phases=4 bus1=1811590.1.2.3.4 bus2=1812031.1.2.3.4 length=0.038058 units=km linecode=BT803_BT803_4_3_4_4
New line.bt1540872 phases=4 bus1=1812031.1.2.3.4 bus2=1812080.1.2.3.4 length=0.026462 units=km linecode=BT803_BT803_4_3_4_4
New line.bt1540879 phases=4 bus1=1812031.1.2.3.4 bus2=1812038.1.2.3.4 length=0.007612 units=km linecode=BT803_BT803_4_3_4_4
New line.bt1540886 phases=4 bus1=1812038.1.2.3.4 bus2=1812045.1.2.3.4 length=0.029598 units=km linecode=BT803_BT803_4_3_4_4
New line.bt1540893 phases=4 bus1=1812045.1.2.3.4 bus2=160118113.1.2.3.4 length=0.030577 units=km linecode=BT803_BT803_4_3_4_4
New line.bt1540900 phases=4 bus1=1812059.1.2.3.4 bus2=1812052.1.2.3.4 length=0.027444 units=km linecode=BT108_BT108_7_3_1_4
New line.bt1540907 phases=4 bus1=1812066.1.2.3.4 bus2=1812024.1.2.3.4 length=0.028427 units=km linecode=BT107_BT107_7_3_1_4
New line.bt1540914 phases=4 bus1=1812073.1.2.3.4 bus2=1812059.1.2.3.4 length=0.029598 units=km linecode=BT108_BT108_7_3_1_4
New line.bt1540921 phases=4 bus1=1812080.1.2.3.4 bus2=1812143.1.2.3.4 length=0.035883000000000005 units=km linecode=BT803_BT803_4_3_4_4
New line.bt1540928 phases=4 bus1=1812087.1.2.3.4 bus2=1812066.1.2.3.4 length=0.00608 units=km linecode=BT107_BT107_7_3_1_4
New line.bt1540935 phases=4 bus1=1812087.1.2.3.4 bus2=1812073.1.2.3.4 length=0.00608 units=km linecode=BT108_BT108_7_3_1_4
New line.bt1540942 phases=4 bus1=1812087.1.2.3.4 bus2=1812122.1.2.3.4 length=0.023524 units=km linecode=BT107_BT107_7_3_1_4
New line.bt1540949 phases=4 bus1=1812094.1.2.3.4 bus2=1812087.1.2.3.4 length=0.026462 units=km linecode=BT107_BT107_7_3_1_4
New line.bt1540956 phases=4 bus1=1812101.1.2.3.4 bus2=1812094.1.2.3.4 length=0.03254 units=km linecode=BT108_BT108_7_3_1_4
New line.bt1540963 phases=4 bus1=1812115.1.2.3.4 bus2=1812101.1.2.3.4 length=0.033521999999999996 units=km linecode=BT108_BT108_7_3_1_4
New line.bt1540970 phases=4 bus1=1812010.1.2.3.4 bus2=1812115.1.2.3.4 length=0.0005 units=km linecode=BT307_BT307_7_3_1_4
New line.bt1540977 phases=4 bus1=1812115.1.2.3.4 bus2=1812129.1.2.3.4 length=0.026462 units=km linecode=BT108_BT108_7_3_1_4
New line.bt1540984 phases=4 bus1=1812129.1.2.3.4 bus2=1812136.1.2.3.4 length=0.029598 units=km linecode=BT108_BT108_7_3_1_4
New line.bt1540991 phases=4 bus1=1812136.1.2.3.4 bus2=1812150.1.2.3.4 length=0.02862 units=km linecode=BT108_BT108_7_3_1_4
New line.bt1540998 phases=4 bus1=1812150.1.2.3.4 bus2=1812157.1.2.3.4 length=0.028427 units=km linecode=BT108_BT108_7_3_1_4
New line.bt1541005 phases=4 bus1=1812157.1.2.3.4 bus2=1812108.1.2.3.4 length=0.02862 units=km linecode=BT107_BT107_7_3_1_4
New line.bt1541012 phases=4 bus1=1812157.1.2.3.4 bus2=1812164.1.2.3.4 length=0.027444 units=km linecode=BT107_BT107_7_3_1_4
New line.bt1541334 phases=4 bus1=1812542.1.2.3.4 bus2=1812535.1.2.3.4 length=0.030577 units=km linecode=BT803_BT803_4_3_4_4
New line.bt1541341 phases=4 bus1=1812549.1.2.3.4 bus2=1812542.1.2.3.4 length=0.02862 units=km linecode=BT803_BT803_4_3_4_4
New line.bt1541348 phases=4 bus1=1812556.1.2.3.4 bus2=1812549.1.2.3.4 length=0.028427 units=km linecode=BT803_BT803_4_3_4_4
New line.bt1541355 phases=4 bus1=1812563.1.2.3.4 bus2=1812556.1.2.3.4 length=0.02862 units=km linecode=BT803_BT803_4_3_4_4
New line.bt1541362 phases=4 bus1=1812528.1.2.3.4 bus2=1812563.1.2.3.4 length=0.0005 units=km linecode=BT307_BT307_7_3_1_4
New line.bt1541369 phases=4 bus1=1812563.1.2.3.4 bus2=1812570.1.2.3.4 length=0.02862 units=km linecode=BT803_BT803_4_3_4_4
New line.bt1541376 phases=4 bus1=1812570.1.2.3.4 bus2=1812577.1.2.3.4 length=0.027444 units=km linecode=BT108_BT108_7_3_1_4
New line.bt1541383 phases=4 bus1=1812577.1.2.3.4 bus2=1812584.1.2.3.4 length=0.029598 units=km linecode=BT803_BT803_4_3_4_4
New line.bt1541390 phases=4 bus1=1812584.1.2.3.4 bus2=1812598.1.2.3.4 length=0.007207 units=km linecode=BT803_BT803_4_3_4_4
New line.bt1541397 phases=4 bus1=1812598.1.2.3.4 bus2=1812591.1.2.3.4 length=0.029412 units=km linecode=BT803_BT803_4_3_4_4
New line.bt1541404 phases=4 bus1=1812598.1.2.3.4 bus2=1812605.1.2.3.4 length=0.030577 units=km linecode=BT803_BT803_4_3_4_4
New line.bt1541502 phases=4 bus1=1812731.1.2.3.4 bus2=1812724.1.2.3.4 length=0.007068 units=km linecode=BT803_BT803_4_3_4_4
New line.bt1541516 phases=4 bus1=1812738.1.2.3.4 bus2=1812731.1.2.3.4 length=0.033716 units=km linecode=BT803_BT803_4_3_4_4
New line.bt1541523 phases=4 bus1=1812745.1.2.3.4 bus2=1812738.1.2.3.4 length=0.030577 units=km linecode=BT803_BT803_4_3_4_4
New line.bt1541530 phases=4 bus1=1812752.1.2.3.4 bus2=1812717.1.2.3.4 length=0.029412 units=km linecode=BT803_BT803_4_3_4_4
New line.bt1541544 phases=4 bus1=1812759.1.2.3.4 bus2=1812745.1.2.3.4 length=0.029598 units=km linecode=BT803_BT803_4_3_4_4
New line.bt1541551 phases=4 bus1=151668945.1.2.3.4 bus2=1812752.1.2.3.4 length=0.007068 units=km linecode=BT803_BT803_4_3_4_4
New line.bt1541558 phases=4 bus1=151668945.1.2.3.4 bus2=1812759.1.2.3.4 length=0.007068 units=km linecode=BT108_BT108_7_3_1_4
New line.bt1541565 phases=4 bus1=1812780.1.2.3.4 bus2=1812766.1.2.3.4 length=0.030577 units=km linecode=BT803_BT803_4_3_4_4
New line.bt1541572 phases=4 bus1=1812787.1.2.3.4 bus2=1812780.1.2.3.4 length=0.029598 units=km linecode=BT803_BT803_4_3_4_4
New line.bt1541579 phases=4 bus1=1812710.1.2.3.4 bus2=1812787.1.2.3.4 length=0.0005 units=km linecode=BT518_BT518_7_3_1_4
New line.bt1541586 phases=4 bus1=1812787.1.2.3.4 bus2=1812794.1.2.3.4 length=0.031558 units=km linecode=BT803_BT803_4_3_4_4
New line.bt1541593 phases=4 bus1=1812794.1.2.3.4 bus2=1812801.1.2.3.4 length=0.033521999999999996 units=km linecode=BT803_BT803_4_3_4_4
New line.bt1541600 phases=4 bus1=1812801.1.2.3.4 bus2=1812815.1.2.3.4 length=0.031763 units=km linecode=BT803_BT803_4_3_4_4
New line.bt1541607 phases=4 bus1=1812808.1.2.3.4 bus2=1812773.1.2.3.4 length=0.027643 units=km linecode=BT803_BT803_4_3_4_4
New line.bt1541614 phases=4 bus1=1812815.1.2.3.4 bus2=1812822.1.2.3.4 length=0.030396999999999997 units=km linecode=BT803_BT803_4_3_4_4