New transformer.392718 phases=1 xhl=1.625 xht=1.625 xlt= 1.3 %r=1.9 windings=3 %loadloss=1.9 %noloadloss=0.6
~ wdg=1 bus=178639856.1 kv=7.96 kva=5 tap=1 conn=Wye
~ wdg=2 bus=1791899.1.4 kv=0.24 kva=5 tap=1 conn=wye
~ wdg=3 bus=1791899.4.2 kv=0.24 kva=5 tap=1 conn=wye
New Reactor.TF392718 phases=1 bus1=1791899.4 R=15 X=0 basefreq=60

New transformer.393453 phases=1 xhl=1.735 xht=1.735 xlt= 1.388 %r=1.8 windings=3 %loadloss=1.8 %noloadloss=0.45
~ wdg=1 bus=126410393.1 kv=7.96 kva=10 tap=1 conn=Wye
~ wdg=2 bus=1793369.1.4 kv=0.24 kva=10 tap=1 conn=wye
~ wdg=3 bus=1793369.4.2 kv=0.24 kva=10 tap=1 conn=wye
New Reactor.TF393453 phases=1 bus1=1793369.4 R=15 X=0 basefreq=60

New transformer.393887 phases=1 xhl=1.735 xht=1.735 xlt= 1.388 %r=1.8 windings=3 %loadloss=1.8 %noloadloss=0.45
~ wdg=1 bus=126410435.1 kv=7.96 kva=10 tap=1 conn=Wye
~ wdg=2 bus=1794237.1.4 kv=0.24 kva=10 tap=1 conn=wye
~ wdg=3 bus=1794237.4.2 kv=0.24 kva=10 tap=1 conn=wye
New Reactor.TF393887 phases=1 bus1=1794237.4 R=15 X=0 basefreq=60

New transformer.393915 phases=1 xhl=1.735 xht=1.735 xlt= 1.388 %r=1.8 windings=3 %loadloss=1.8 %noloadloss=0.45
~ wdg=1 bus=126410449.1 kv=7.96 kva=10 tap=1 conn=Wye
~ wdg=2 bus=1794293.1.4 kv=0.24 kva=10 tap=1 conn=wye
~ wdg=3 bus=1794293.4.2 kv=0.24 kva=10 tap=1 conn=wye
New Reactor.TF393915 phases=1 bus1=1794293.4 R=15 X=0 basefreq=60

New transformer.393768 phases=1 xhl=1.921 xht=1.921 xlt= 1.537 %r=1.6 windings=3 %loadloss=1.6 %noloadloss=0.4
~ wdg=1 bus=181955613.1 kv=7.96 kva=15 tap=1 conn=Wye
~ wdg=2 bus=1793999.1.4 kv=0.24 kva=15 tap=1 conn=wye
~ wdg=3 bus=1793999.4.2 kv=0.24 kva=15 tap=1 conn=wye
New Reactor.TF393768 phases=1 bus1=1793999.4 R=15 X=0 basefreq=60

New transformer.393761 phases=1 xhl=1.735 xht=1.735 xlt= 1.388 %r=1.8 windings=3 %loadloss=1.8 %noloadloss=0.45
~ wdg=1 bus=126410365.1 kv=7.96 kva=10 tap=1 conn=Wye
~ wdg=2 bus=1793985.1.4 kv=0.24 kva=10 tap=1 conn=wye
~ wdg=3 bus=1793985.4.2 kv=0.24 kva=10 tap=1 conn=wye
New Reactor.TF393761 phases=1 bus1=1793985.4 R=15 X=0 basefreq=60

New transformer.393957 phases=1 xhl=1.921 xht=1.921 xlt= 1.537 %r=1.6 windings=3 %loadloss=1.6 %noloadloss=0.4
~ wdg=1 bus=148731437.1 kv=7.96 kva=15 tap=1 conn=Wye
~ wdg=2 bus=1794377.1.4 kv=0.24 kva=15 tap=1 conn=wye
~ wdg=3 bus=1794377.4.2 kv=0.24 kva=15 tap=1 conn=wye
New Reactor.TF393957 phases=1 bus1=1794377.4 R=15 X=0 basefreq=60

New transformer.391899 phases=1 xhl=1.735 xht=1.735 xlt= 1.388 %r=1.8 windings=3 %loadloss=1.8 %noloadloss=0.45
~ wdg=1 bus=158898242.1 kv=7.96 kva=10 tap=1 conn=Wye
~ wdg=2 bus=1790261.1.4 kv=0.24 kva=10 tap=1 conn=wye
~ wdg=3 bus=1790261.4.2 kv=0.24 kva=10 tap=1 conn=wye
New Reactor.TF391899 phases=1 bus1=1790261.4 R=15 X=0 basefreq=60

New transformer.392991 phases=1 xhl=1.735 xht=1.735 xlt= 1.388 %r=1.8 windings=3 %loadloss=1.8 %noloadloss=0.45
~ wdg=1 bus=181086805.1 kv=7.96 kva=10 tap=1 conn=Wye
~ wdg=2 bus=1792445.1.4 kv=0.24 kva=10 tap=1 conn=wye
~ wdg=3 bus=1792445.4.2 kv=0.24 kva=10 tap=1 conn=wye
New Reactor.TF392991 phases=1 bus1=1792445.4 R=15 X=0 basefreq=60

New transformer.394909 phases=1 xhl=1.735 xht=1.735 xlt= 1.388 %r=1.8 windings=3 %loadloss=1.8 %noloadloss=0.45
~ wdg=1 bus=158897966.1 kv=7.96 kva=10 tap=1 conn=Wye
~ wdg=2 bus=1796638.1.4 kv=0.24 kva=10 tap=1 conn=wye
~ wdg=3 bus=1796638.4.2 kv=0.24 kva=10 tap=1 conn=wye
New Reactor.TF394909 phases=1 bus1=1796638.4 R=15 X=0 basefreq=60

New transformer.394034 phases=1 xhl=1.921 xht=1.921 xlt= 1.537 %r=1.6 windings=3 %loadloss=1.6 %noloadloss=0.4
~ wdg=1 bus=159901433.1 kv=7.96 kva=15 tap=1 conn=Wye
~ wdg=2 bus=1794531.1.4 kv=0.24 kva=15 tap=1 conn=wye
~ wdg=3 bus=1794531.4.2 kv=0.24 kva=15 tap=1 conn=wye
New Reactor.TF394034 phases=1 bus1=1794531.4 R=15 X=0 basefreq=60

New transformer.395119 phases=1 xhl=1.735 xht=1.735 xlt= 1.388 %r=1.8 windings=3 %loadloss=1.8 %noloadloss=0.45
~ wdg=1 bus=158897964.2 kv=7.96 kva=10 tap=1 conn=Wye
~ wdg=2 bus=1797828.1.4 kv=0.24 kva=10 tap=1 conn=wye
~ wdg=3 bus=1797828.4.2 kv=0.24 kva=10 tap=1 conn=wye
New Reactor.TF395119 phases=1 bus1=1797828.4 R=15 X=0 basefreq=60

New transformer.391598 phases=1 xhl=1.735 xht=1.735 xlt= 1.388 %r=1.8 windings=3 %loadloss=1.8 %noloadloss=0.45
~ wdg=1 bus=158898125.2 kv=7.96 kva=10 tap=1 conn=Wye
~ wdg=2 bus=1789659.1.4 kv=0.24 kva=10 tap=1 conn=wye
~ wdg=3 bus=1789659.4.2 kv=0.24 kva=10 tap=1 conn=wye
New Reactor.TF391598 phases=1 bus1=1789659.4 R=15 X=0 basefreq=60

New transformer.391969 phases=1 xhl=1.921 xht=1.921 xlt= 1.537 %r=1.6 windings=3 %loadloss=1.6 %noloadloss=0.4
~ wdg=1 bus=158898074.2 kv=7.96 kva=15 tap=1 conn=Wye
~ wdg=2 bus=1790401.1.4 kv=0.24 kva=15 tap=1 conn=wye
~ wdg=3 bus=1790401.4.2 kv=0.24 kva=15 tap=1 conn=wye
New Reactor.TF391969 phases=1 bus1=1790401.4 R=15 X=0 basefreq=60

New transformer.391682 phases=1 xhl=1.735 xht=1.735 xlt= 1.388 %r=1.8 windings=3 %loadloss=1.8 %noloadloss=0.45
~ wdg=1 bus=158898085.2 kv=7.96 kva=10 tap=1 conn=Wye
~ wdg=2 bus=1789827.1.4 kv=0.24 kva=10 tap=1 conn=wye
~ wdg=3 bus=1789827.4.2 kv=0.24 kva=10 tap=1 conn=wye
New Reactor.TF391682 phases=1 bus1=1789827.4 R=15 X=0 basefreq=60

New transformer.392501 phases=1 xhl=1.625 xht=1.625 xlt= 1.3 %r=1.9 windings=3 %loadloss=1.9 %noloadloss=0.6
~ wdg=1 bus=162791155.2 kv=7.96 kva=5 tap=1 conn=Wye
~ wdg=2 bus=1791465.1.4 kv=0.24 kva=5 tap=1 conn=wye
~ wdg=3 bus=1791465.4.2 kv=0.24 kva=5 tap=1 conn=wye
New Reactor.TF392501 phases=1 bus1=1791465.4 R=15 X=0 basefreq=60

New transformer.392823 phases=1 xhl=1.921 xht=1.921 xlt= 1.537 %r=1.6 windings=3 %loadloss=1.6 %noloadloss=0.4
~ wdg=1 bus=173703817.2 kv=7.96 kva=15 tap=1 conn=Wye
~ wdg=2 bus=1792109.1.4 kv=0.24 kva=15 tap=1 conn=wye
~ wdg=3 bus=1792109.4.2 kv=0.24 kva=15 tap=1 conn=wye
New Reactor.TF392823 phases=1 bus1=1792109.4 R=15 X=0 basefreq=60

New transformer.393348 phases=1 xhl=1.921 xht=1.921 xlt= 1.537 %r=1.6 windings=3 %loadloss=1.6 %noloadloss=0.4
~ wdg=1 bus=182127686.2 kv=7.96 kva=15 tap=1 conn=Wye
~ wdg=2 bus=1793159.1.4 kv=0.24 kva=15 tap=1 conn=wye
~ wdg=3 bus=1793159.4.2 kv=0.24 kva=15 tap=1 conn=wye
New Reactor.TF393348 phases=1 bus1=1793159.4 R=15 X=0 basefreq=60

New transformer.392977 phases=1 xhl=1.921 xht=1.921 xlt= 1.537 %r=1.6 windings=3 %loadloss=1.6 %noloadloss=0.4
~ wdg=1 bus=173703816.2 kv=7.96 kva=15 tap=1 conn=Wye
~ wdg=2 bus=1792417.1.4 kv=0.24 kva=15 tap=1 conn=wye
~ wdg=3 bus=1792417.4.2 kv=0.24 kva=15 tap=1 conn=wye
New Reactor.TF392977 phases=1 bus1=1792417.4 R=15 X=0 basefreq=60

New transformer.392865 phases=1 xhl=1.735 xht=1.735 xlt= 1.388 %r=1.8 windings=3 %loadloss=1.8 %noloadloss=0.45
~ wdg=1 bus=158898140.2 kv=7.96 kva=10 tap=1 conn=Wye
~ wdg=2 bus=1792193.1.4 kv=0.24 kva=10 tap=1 conn=wye
~ wdg=3 bus=1792193.4.2 kv=0.24 kva=10 tap=1 conn=wye
New Reactor.TF392865 phases=1 bus1=1792193.4 R=15 X=0 basefreq=60

New transformer.392753 phases=1 xhl=1.921 xht=1.921 xlt= 1.537 %r=1.6 windings=3 %loadloss=1.6 %noloadloss=0.4
~ wdg=1 bus=158898264.2 kv=7.96 kva=15 tap=1 conn=Wye
~ wdg=2 bus=1791969.1.4 kv=0.24 kva=15 tap=1 conn=wye
~ wdg=3 bus=1791969.4.2 kv=0.24 kva=15 tap=1 conn=wye
New Reactor.TF392753 phases=1 bus1=1791969.4 R=15 X=0 basefreq=60

New transformer.392879 phases=1 xhl=1.735 xht=1.735 xlt= 1.388 %r=1.8 windings=3 %loadloss=1.8 %noloadloss=0.45
~ wdg=1 bus=181923780.2 kv=7.96 kva=10 tap=1 conn=Wye
~ wdg=2 bus=1792221.1.4 kv=0.24 kva=10 tap=1 conn=wye
~ wdg=3 bus=1792221.4.2 kv=0.24 kva=10 tap=1 conn=wye
New Reactor.TF392879 phases=1 bus1=1792221.4 R=15 X=0 basefreq=60

New transformer.393068 phases=1 xhl=1.625 xht=1.625 xlt= 1.3 %r=1.9 windings=3 %loadloss=1.9 %noloadloss=0.6
~ wdg=1 bus=158898216.2 kv=7.96 kva=5 tap=1 conn=Wye
~ wdg=2 bus=1792599.1.4 kv=0.24 kva=5 tap=1 conn=wye
~ wdg=3 bus=1792599.4.2 kv=0.24 kva=5 tap=1 conn=wye
New Reactor.TF393068 phases=1 bus1=1792599.4 R=15 X=0 basefreq=60

New transformer.392774 phases=1 xhl=1.735 xht=1.735 xlt= 1.388 %r=1.8 windings=3 %loadloss=1.8 %noloadloss=0.45
~ wdg=1 bus=182127688.2 kv=7.96 kva=10 tap=1 conn=Wye
~ wdg=2 bus=1792011.1.4 kv=0.24 kva=10 tap=1 conn=wye
~ wdg=3 bus=1792011.4.2 kv=0.24 kva=10 tap=1 conn=wye
New Reactor.TF392774 phases=1 bus1=1792011.4 R=15 X=0 basefreq=60

New transformer.392627 phases=1 xhl=1.921 xht=1.921 xlt= 1.537 %r=1.6 windings=3 %loadloss=1.6 %noloadloss=0.4
~ wdg=1 bus=165390203.2 kv=7.96 kva=15 tap=1 conn=Wye
~ wdg=2 bus=1791717.1.4 kv=0.24 kva=15 tap=1 conn=wye
~ wdg=3 bus=1791717.4.2 kv=0.24 kva=15 tap=1 conn=wye
New Reactor.TF392627 phases=1 bus1=1791717.4 R=15 X=0 basefreq=60

New transformer.392564 phases=1 xhl=1.921 xht=1.921 xlt= 1.537 %r=1.6 windings=3 %loadloss=1.6 %noloadloss=0.4
~ wdg=1 bus=162791160.2 kv=7.96 kva=15 tap=1 conn=Wye
~ wdg=2 bus=1791591.1.4 kv=0.24 kva=15 tap=1 conn=wye
~ wdg=3 bus=1791591.4.2 kv=0.24 kva=15 tap=1 conn=wye
New Reactor.TF392564 phases=1 bus1=1791591.4 R=15 X=0 basefreq=60

New transformer.392725 phases=1 xhl=1.921 xht=1.921 xlt= 1.537 %r=1.6 windings=3 %loadloss=1.6 %noloadloss=0.4
~ wdg=1 bus=181923774.2 kv=7.96 kva=15 tap=1 conn=Wye
~ wdg=2 bus=1791913.1.4 kv=0.24 kva=15 tap=1 conn=wye
~ wdg=3 bus=1791913.4.2 kv=0.24 kva=15 tap=1 conn=wye
New Reactor.TF392725 phases=1 bus1=1791913.4 R=15 X=0 basefreq=60

New transformer.393180 phases=1 xhl=1.921 xht=1.921 xlt= 1.537 %r=1.6 windings=3 %loadloss=1.6 %noloadloss=0.4
~ wdg=1 bus=173876065.2 kv=7.96 kva=15 tap=1 conn=Wye
~ wdg=2 bus=1792823.1.4 kv=0.24 kva=15 tap=1 conn=wye
~ wdg=3 bus=1792823.4.2 kv=0.24 kva=15 tap=1 conn=wye
New Reactor.TF393180 phases=1 bus1=1792823.4 R=15 X=0 basefreq=60

New transformer.393376 phases=1 xhl=1.735 xht=1.735 xlt= 1.388 %r=1.8 windings=3 %loadloss=1.8 %noloadloss=0.45
~ wdg=1 bus=182112102.2 kv=7.96 kva=10 tap=1 conn=Wye
~ wdg=2 bus=1793215.1.4 kv=0.24 kva=10 tap=1 conn=wye
~ wdg=3 bus=1793215.4.2 kv=0.24 kva=10 tap=1 conn=wye
New Reactor.TF393376 phases=1 bus1=1793215.4 R=15 X=0 basefreq=60

New transformer.392963 phases=1 xhl=1.735 xht=1.735 xlt= 1.388 %r=1.8 windings=3 %loadloss=1.8 %noloadloss=0.45
~ wdg=1 bus=158898212.2 kv=7.96 kva=10 tap=1 conn=Wye
~ wdg=2 bus=1792389.1.4 kv=0.24 kva=10 tap=1 conn=wye
~ wdg=3 bus=1792389.4.2 kv=0.24 kva=10 tap=1 conn=wye
New Reactor.TF392963 phases=1 bus1=1792389.4 R=15 X=0 basefreq=60

New transformer.392578 phases=1 xhl=1.735 xht=1.735 xlt= 1.388 %r=1.8 windings=3 %loadloss=1.8 %noloadloss=0.45
~ wdg=1 bus=162791158.2 kv=7.96 kva=10 tap=1 conn=Wye
~ wdg=2 bus=1791619.1.4 kv=0.24 kva=10 tap=1 conn=wye
~ wdg=3 bus=1791619.4.2 kv=0.24 kva=10 tap=1 conn=wye
New Reactor.TF392578 phases=1 bus1=1791619.4 R=15 X=0 basefreq=60

New transformer.391997 phases=1 xhl=1.735 xht=1.735 xlt= 1.388 %r=1.8 windings=3 %loadloss=1.8 %noloadloss=0.45
~ wdg=1 bus=158898078.2 kv=7.96 kva=10 tap=1 conn=Wye
~ wdg=2 bus=1790457.1.4 kv=0.24 kva=10 tap=1 conn=wye
~ wdg=3 bus=1790457.4.2 kv=0.24 kva=10 tap=1 conn=wye
New Reactor.TF391997 phases=1 bus1=1790457.4 R=15 X=0 basefreq=60

New transformer.393005 phases=1 xhl=1.735 xht=1.735 xlt= 1.388 %r=1.8 windings=3 %loadloss=1.8 %noloadloss=0.45
~ wdg=1 bus=158898218.2 kv=7.96 kva=10 tap=1 conn=Wye
~ wdg=2 bus=1792473.1.4 kv=0.24 kva=10 tap=1 conn=wye
~ wdg=3 bus=1792473.4.2 kv=0.24 kva=10 tap=1 conn=wye
New Reactor.TF393005 phases=1 bus1=1792473.4 R=15 X=0 basefreq=60

New transformer.393194 phases=1 xhl=1.921 xht=1.921 xlt= 1.537 %r=1.6 windings=3 %loadloss=1.6 %noloadloss=0.4
~ wdg=1 bus=182127682.2 kv=7.96 kva=15 tap=1 conn=Wye
~ wdg=2 bus=1792851.1.4 kv=0.24 kva=15 tap=1 conn=wye
~ wdg=3 bus=1792851.4.2 kv=0.24 kva=15 tap=1 conn=wye
New Reactor.TF393194 phases=1 bus1=1792851.4 R=15 X=0 basefreq=60

New transformer.392872 phases=1 xhl=1.921 xht=1.921 xlt= 1.537 %r=1.6 windings=3 %loadloss=1.6 %noloadloss=0.4
~ wdg=1 bus=181277662.2 kv=7.96 kva=15 tap=1 conn=Wye
~ wdg=2 bus=1792207.1.4 kv=0.24 kva=15 tap=1 conn=wye
~ wdg=3 bus=1792207.4.2 kv=0.24 kva=15 tap=1 conn=wye
New Reactor.TF392872 phases=1 bus1=1792207.4 R=15 X=0 basefreq=60

New transformer.393257 phases=1 xhl=1.921 xht=1.921 xlt= 1.537 %r=1.6 windings=3 %loadloss=1.6 %noloadloss=0.4
~ wdg=1 bus=126410204.2 kv=7.96 kva=15 tap=1 conn=Wye
~ wdg=2 bus=1792977.1.4 kv=0.24 kva=15 tap=1 conn=wye
~ wdg=3 bus=1792977.4.2 kv=0.24 kva=15 tap=1 conn=wye
New Reactor.TF393257 phases=1 bus1=1792977.4 R=15 X=0 basefreq=60

New transformer.393299 phases=1 xhl=1.735 xht=1.735 xlt= 1.388 %r=1.8 windings=3 %loadloss=1.8 %noloadloss=0.45
~ wdg=1 bus=126410197.2 kv=7.96 kva=10 tap=1 conn=Wye
~ wdg=2 bus=1793061.1.4 kv=0.24 kva=10 tap=1 conn=wye
~ wdg=3 bus=1793061.4.2 kv=0.24 kva=10 tap=1 conn=wye
New Reactor.TF393299 phases=1 bus1=1793061.4 R=15 X=0 basefreq=60

New transformer.394153 phases=1 xhl=1.921 xht=1.921 xlt= 1.537 %r=1.6 windings=3 %loadloss=1.6 %noloadloss=0.4
~ wdg=1 bus=159901431.2 kv=7.96 kva=15 tap=1 conn=Wye
~ wdg=2 bus=1794769.1.4 kv=0.24 kva=15 tap=1 conn=wye
~ wdg=3 bus=1794769.4.2 kv=0.24 kva=15 tap=1 conn=wye
New Reactor.TF394153 phases=1 bus1=1794769.4 R=15 X=0 basefreq=60

New transformer.395336 phases=1 xhl=1.921 xht=1.921 xlt= 1.537 %r=1.6 windings=3 %loadloss=1.6 %noloadloss=0.4
~ wdg=1 bus=158898320.3 kv=7.96 kva=15 tap=1 conn=Wye
~ wdg=2 bus=1798262.1.4 kv=0.24 kva=15 tap=1 conn=wye
~ wdg=3 bus=1798262.4.2 kv=0.24 kva=15 tap=1 conn=wye
New Reactor.TF395336 phases=1 bus1=1798262.4 R=15 X=0 basefreq=60

New transformer.395273 phases=1 xhl=2.058 xht=2.058 xlt= 1.646 %r=1.42 windings=3 %loadloss=1.42 %noloadloss=0.32
~ wdg=1 bus=158898314.3 kv=7.96 kva=25 tap=1 conn=Wye
~ wdg=2 bus=1798136.1.4 kv=0.24 kva=25 tap=1 conn=wye
~ wdg=3 bus=1798136.4.2 kv=0.24 kva=25 tap=1 conn=wye
New Reactor.TF395273 phases=1 bus1=1798136.4 R=15 X=0 basefreq=60

New transformer.391843 phases=1 xhl=1.735 xht=1.735 xlt= 1.388 %r=1.8 windings=3 %loadloss=1.8 %noloadloss=0.45
~ wdg=1 bus=158898076.3 kv=7.96 kva=10 tap=1 conn=Wye
~ wdg=2 bus=1790149.1.4 kv=0.24 kva=10 tap=1 conn=wye
~ wdg=3 bus=1790149.4.2 kv=0.24 kva=10 tap=1 conn=wye
New Reactor.TF391843 phases=1 bus1=1790149.4 R=15 X=0 basefreq=60

New transformer.392123 phases=1 xhl=1.735 xht=1.735 xlt= 1.388 %r=1.8 windings=3 %loadloss=1.8 %noloadloss=0.45
~ wdg=1 bus=158898235.3 kv=7.96 kva=10 tap=1 conn=Wye
~ wdg=2 bus=1790709.1.4 kv=0.24 kva=10 tap=1 conn=wye
~ wdg=3 bus=1790709.4.2 kv=0.24 kva=10 tap=1 conn=wye
New Reactor.TF392123 phases=1 bus1=1790709.4 R=15 X=0 basefreq=60

New transformer.392011 phases=1 xhl=1.625 xht=1.625 xlt= 1.3 %r=1.9 windings=3 %loadloss=1.9 %noloadloss=0.6
~ wdg=1 bus=168638015.3 kv=7.96 kva=5 tap=1 conn=Wye
~ wdg=2 bus=1790485.1.4 kv=0.24 kva=5 tap=1 conn=wye
~ wdg=3 bus=1790485.4.2 kv=0.24 kva=5 tap=1 conn=wye
New Reactor.TF392011 phases=1 bus1=1790485.4 R=15 X=0 basefreq=60

New transformer.392165 phases=1 xhl=1.735 xht=1.735 xlt= 1.388 %r=1.8 windings=3 %loadloss=1.8 %noloadloss=0.45
~ wdg=1 bus=168638019.3 kv=7.96 kva=10 tap=1 conn=Wye
~ wdg=2 bus=1790793.1.4 kv=0.24 kva=10 tap=1 conn=wye
~ wdg=3 bus=1790793.4.2 kv=0.24 kva=10 tap=1 conn=wye
New Reactor.TF392165 phases=1 bus1=1790793.4 R=15 X=0 basefreq=60

New transformer.395364 phases=1 xhl=1.735 xht=1.735 xlt= 1.388 %r=1.8 windings=3 %loadloss=1.8 %noloadloss=0.45
~ wdg=1 bus=158898317.3 kv=7.96 kva=10 tap=1 conn=Wye
~ wdg=2 bus=1798318.1.4 kv=0.24 kva=10 tap=1 conn=wye
~ wdg=3 bus=1798318.4.2 kv=0.24 kva=10 tap=1 conn=wye
New Reactor.TF395364 phases=1 bus1=1798318.4 R=15 X=0 basefreq=60

New transformer.392095 phases=1 xhl=1.921 xht=1.921 xlt= 1.537 %r=1.6 windings=3 %loadloss=1.6 %noloadloss=0.4
~ wdg=1 bus=178639855.3 kv=7.96 kva=15 tap=1 conn=Wye
~ wdg=2 bus=1790653.1.4 kv=0.24 kva=15 tap=1 conn=wye
~ wdg=3 bus=1790653.4.2 kv=0.24 kva=15 tap=1 conn=wye
New Reactor.TF392095 phases=1 bus1=1790653.4 R=15 X=0 basefreq=60

New transformer.392172 phases=1 xhl=1.735 xht=1.735 xlt= 1.388 %r=1.8 windings=3 %loadloss=1.8 %noloadloss=0.45
~ wdg=1 bus=168638009.3 kv=7.96 kva=10 tap=1 conn=Wye
~ wdg=2 bus=1790807.1.4 kv=0.24 kva=10 tap=1 conn=wye
~ wdg=3 bus=1790807.4.2 kv=0.24 kva=10 tap=1 conn=wye
New Reactor.TF392172 phases=1 bus1=1790807.4 R=15 X=0 basefreq=60

New transformer.393341 phases=1 xhl=1.735 xht=1.735 xlt= 1.388 %r=1.8 windings=3 %loadloss=1.8 %noloadloss=0.45
~ wdg=1 bus=156228308.3 kv=7.96 kva=10 tap=1 conn=Wye
~ wdg=2 bus=1793145.1.4 kv=0.24 kva=10 tap=1 conn=wye
~ wdg=3 bus=1793145.4.2 kv=0.24 kva=10 tap=1 conn=wye
New Reactor.TF393341 phases=1 bus1=1793145.4 R=15 X=0 basefreq=60

New transformer.392704 phases=1 xhl=1.921 xht=1.921 xlt= 1.537 %r=1.6 windings=3 %loadloss=1.6 %noloadloss=0.4
~ wdg=1 bus=158898148.3 kv=7.96 kva=15 tap=1 conn=Wye
~ wdg=2 bus=1791871.1.4 kv=0.24 kva=15 tap=1 conn=wye
~ wdg=3 bus=1791871.4.2 kv=0.24 kva=15 tap=1 conn=wye
New Reactor.TF392704 phases=1 bus1=1791871.4 R=15 X=0 basefreq=60

New transformer.392340 phases=1 xhl=1.921 xht=1.921 xlt= 1.537 %r=1.6 windings=3 %loadloss=1.6 %noloadloss=0.4
~ wdg=1 bus=158898237.3 kv=7.96 kva=15 tap=1 conn=Wye
~ wdg=2 bus=1791143.1.4 kv=0.24 kva=15 tap=1 conn=wye
~ wdg=3 bus=1791143.4.2 kv=0.24 kva=15 tap=1 conn=wye
New Reactor.TF392340 phases=1 bus1=1791143.4 R=15 X=0 basefreq=60

New transformer.392081 phases=1 xhl=1.735 xht=1.735 xlt= 1.388 %r=1.8 windings=3 %loadloss=1.8 %noloadloss=0.45
~ wdg=1 bus=168638013.3 kv=7.96 kva=10 tap=1 conn=Wye
~ wdg=2 bus=1790625.1.4 kv=0.24 kva=10 tap=1 conn=wye
~ wdg=3 bus=1790625.4.2 kv=0.24 kva=10 tap=1 conn=wye
New Reactor.TF392081 phases=1 bus1=1790625.4 R=15 X=0 basefreq=60

New transformer.392928 phases=1 xhl=1.735 xht=1.735 xlt= 1.388 %r=1.8 windings=3 %loadloss=1.8 %noloadloss=0.45
~ wdg=1 bus=161980931.3 kv=7.96 kva=10 tap=1 conn=Wye
~ wdg=2 bus=1792319.1.4 kv=0.24 kva=10 tap=1 conn=wye
~ wdg=3 bus=1792319.4.2 kv=0.24 kva=10 tap=1 conn=wye
New Reactor.TF392928 phases=1 bus1=1792319.4 R=15 X=0 basefreq=60

New transformer.392004 phases=1 xhl=1.735 xht=1.735 xlt= 1.388 %r=1.8 windings=3 %loadloss=1.8 %noloadloss=0.45
~ wdg=1 bus=158898081.3 kv=7.96 kva=10 tap=1 conn=Wye
~ wdg=2 bus=1790471.1.4 kv=0.24 kva=10 tap=1 conn=wye
~ wdg=3 bus=1790471.4.2 kv=0.24 kva=10 tap=1 conn=wye
New Reactor.TF392004 phases=1 bus1=1790471.4 R=15 X=0 basefreq=60

New transformer.393369 phases=1 xhl=1.735 xht=1.735 xlt= 1.388 %r=1.8 windings=3 %loadloss=1.8 %noloadloss=0.45
~ wdg=1 bus=156228303.3 kv=7.96 kva=10 tap=1 conn=Wye
~ wdg=2 bus=1793201.1.4 kv=0.24 kva=10 tap=1 conn=wye
~ wdg=3 bus=1793201.4.2 kv=0.24 kva=10 tap=1 conn=wye
New Reactor.TF393369 phases=1 bus1=1793201.4 R=15 X=0 basefreq=60

New transformer.394657 phases=1 xhl=1.735 xht=1.735 xlt= 1.388 %r=1.8 windings=3 %loadloss=1.8 %noloadloss=0.45
~ wdg=1 bus=158898301.3 kv=7.96 kva=10 tap=1 conn=Wye
~ wdg=2 bus=1795994.1.4 kv=0.24 kva=10 tap=1 conn=wye
~ wdg=3 bus=1795994.4.2 kv=0.24 kva=10 tap=1 conn=wye
New Reactor.TF394657 phases=1 bus1=1795994.4 R=15 X=0 basefreq=60

New transformer.393201 phases=1 xhl=1.735 xht=1.735 xlt= 1.388 %r=1.8 windings=3 %loadloss=1.8 %noloadloss=0.45
~ wdg=1 bus=156228309.3 kv=7.96 kva=10 tap=1 conn=Wye
~ wdg=2 bus=1792865.1.4 kv=0.24 kva=10 tap=1 conn=wye
~ wdg=3 bus=1792865.4.2 kv=0.24 kva=10 tap=1 conn=wye
New Reactor.TF393201 phases=1 bus1=1792865.4 R=15 X=0 basefreq=60

New transformer.393313 phases=1 xhl=1.735 xht=1.735 xlt= 1.388 %r=1.8 windings=3 %loadloss=1.8 %noloadloss=0.45
~ wdg=1 bus=158898292.3 kv=7.96 kva=10 tap=1 conn=Wye
~ wdg=2 bus=1793089.1.4 kv=0.24 kva=10 tap=1 conn=wye
~ wdg=3 bus=1793089.4.2 kv=0.24 kva=10 tap=1 conn=wye
New Reactor.TF393313 phases=1 bus1=1793089.4 R=15 X=0 basefreq=60

New transformer.394769 phases=1 xhl=2.139 xht=2.139 xlt= 1.712 %r=1.293 windings=3 %loadloss=1.3108108108108107 %noloadloss=0.32432432432432434
~ wdg=1 bus=158898304.3 kv=7.96 kva=37 tap=1 conn=Wye
~ wdg=2 bus=1796365.1.4 kv=0.24 kva=37 tap=1 conn=wye
~ wdg=3 bus=1796365.4.2 kv=0.24 kva=37 tap=1 conn=wye
New Reactor.TF394769 phases=1 bus1=1796365.4 R=15 X=0 basefreq=60

New transformer.392830 phases=1 xhl=1.921 xht=1.921 xlt= 1.537 %r=1.6 windings=3 %loadloss=1.6 %noloadloss=0.4
~ wdg=1 bus=178639857.3 kv=7.96 kva=15 tap=1 conn=Wye
~ wdg=2 bus=1792123.1.4 kv=0.24 kva=15 tap=1 conn=wye
~ wdg=3 bus=1792123.4.2 kv=0.24 kva=15 tap=1 conn=wye
New Reactor.TF392830 phases=1 bus1=1792123.4 R=15 X=0 basefreq=60

New transformer.393355 phases=1 xhl=1.735 xht=1.735 xlt= 1.388 %r=1.8 windings=3 %loadloss=1.8 %noloadloss=0.45
~ wdg=1 bus=156228307.3 kv=7.96 kva=10 tap=1 conn=Wye
~ wdg=2 bus=1793173.1.4 kv=0.24 kva=10 tap=1 conn=wye
~ wdg=3 bus=1793173.4.2 kv=0.24 kva=10 tap=1 conn=wye
New Reactor.TF393355 phases=1 bus1=1793173.4 R=15 X=0 basefreq=60

New transformer.395329 phases=3 xhl=3.48 %r=1.97 windings=2 %loadloss=1.9666666666666666 %noloadloss=0.5
~ wdg=1 bus=158897941.1.2.3 kv=13.8 kva=15 tap=1 conn=delta
~ wdg=2 bus=1798248.1.2.3.4 kv=0.22 kva=15 tap=1 conn=wye
New Reactor.TF395329 phases=1 bus1=1798248.4 R=15 X=0 basefreq=60

New transformer.392508 phases=3 xhl=3.7 %r=1.52 windings=2 %loadloss=1.5222222222222221 %noloadloss=0.37777777777777777
~ wdg=1 bus=161980944.1.2.3 kv=13.8 kva=45 tap=1 conn=delta
~ wdg=2 bus=1791479.1.2.3.4 kv=0.22 kva=45 tap=1 conn=wye
New Reactor.TF392508 phases=1 bus1=1791479.4 R=15 X=0 basefreq=60

New transformer.392277 phases=3 xhl=3.7 %r=1.52 windings=2 %loadloss=1.5222222222222221 %noloadloss=0.37777777777777777
~ wdg=1 bus=158898067.1.2.3 kv=13.8 kva=45 tap=1 conn=delta
~ wdg=2 bus=1791017.1.2.3.4 kv=0.22 kva=45 tap=1 conn=wye
New Reactor.TF392277 phases=1 bus1=1791017.4 R=15 X=0 basefreq=60

New transformer.392445 phases=3 xhl=3.77 %r=1.34 windings=2 %loadloss=1.34 %noloadloss=0.34
~ wdg=1 bus=166897542.1.2.3 kv=13.8 kva=75 tap=1 conn=delta
~ wdg=2 bus=1791353.1.2.3.4 kv=0.22 kva=75 tap=1 conn=wye
New Reactor.TF392445 phases=1 bus1=1791353.4 R=15 X=0 basefreq=60

New transformer.394818 phases=3 xhl=3.64 %r=1.67 windings=2 %loadloss=1.6666666666666667 %noloadloss=0.43333333333333335
~ wdg=1 bus=158897976.1.2.3 kv=13.8 kva=30 tap=1 conn=delta
~ wdg=2 bus=1796456.1.2.3.4 kv=0.22 kva=30 tap=1 conn=wye
New Reactor.TF394818 phases=1 bus1=1796456.4 R=15 X=0 basefreq=60

New transformer.394265 phases=3 xhl=3.48 %r=1.97 windings=2 %loadloss=1.9666666666666666 %noloadloss=0.5
~ wdg=1 bus=159901427.1.2.3 kv=13.8 kva=15 tap=1 conn=delta
~ wdg=2 bus=1794993.1.2.3.4 kv=0.22 kva=15 tap=1 conn=wye
New Reactor.TF394265 phases=1 bus1=1794993.4 R=15 X=0 basefreq=60

New transformer.398059 phases=3 xhl=3.7 %r=1.52 windings=2 %loadloss=1.5222222222222221 %noloadloss=0.37777777777777777
~ wdg=1 bus=179442779.1.2.3 kv=13.8 kva=45 tap=1 conn=delta
~ wdg=2 bus=1812010.1.2.3.4 kv=0.22 kva=45 tap=1 conn=wye
New Reactor.TF398059 phases=1 bus1=1812010.4 R=15 X=0 basefreq=60

New transformer.398108 phases=3 xhl=3.7 %r=1.52 windings=2 %loadloss=1.5222222222222221 %noloadloss=0.37777777777777777
~ wdg=1 bus=158898418.1.2.3 kv=13.8 kva=45 tap=1 conn=delta
~ wdg=2 bus=1812528.1.2.3.4 kv=0.22 kva=45 tap=1 conn=wye
New Reactor.TF398108 phases=1 bus1=1812528.4 R=15 X=0 basefreq=60

New transformer.397905 phases=3 xhl=3.77 %r=1.34 windings=2 %loadloss=1.34 %noloadloss=0.34
~ wdg=1 bus=179442768.1.2.3 kv=13.8 kva=75 tap=1 conn=delta
~ wdg=2 bus=1810946.1.2.3.4 kv=0.22 kva=75 tap=1 conn=wye
New Reactor.TF397905 phases=1 bus1=1810946.4 R=15 X=0 basefreq=60

New transformer.398003 phases=3 xhl=3.7 %r=1.52 windings=2 %loadloss=1.5222222222222221 %noloadloss=0.37777777777777777
~ wdg=1 bus=179442781.1.2.3 kv=13.8 kva=45 tap=1 conn=delta
~ wdg=2 bus=1811534.1.2.3.4 kv=0.22 kva=45 tap=1 conn=wye
New Reactor.TF398003 phases=1 bus1=1811534.4 R=15 X=0 basefreq=60

New transformer.1444325 phases=3 xhl=3.7 %r=1.52 windings=2 %loadloss=1.5222222222222221 %noloadloss=0.37777777777777777
~ wdg=1 bus=160119084.1.2.3 kv=13.8 kva=45 tap=1 conn=delta
~ wdg=2 bus=160117924.1.2.3.4 kv=0.22 kva=45 tap=1 conn=wye
New Reactor.TF1444325 phases=1 bus1=160117924.4 R=15 X=0 basefreq=60

New transformer.397842 phases=3 xhl=3.64 %r=1.67 windings=2 %loadloss=1.6666666666666667 %noloadloss=0.43333333333333335
~ wdg=1 bus=179442773.1.2.3 kv=13.8 kva=30 tap=1 conn=delta
~ wdg=2 bus=1810624.1.2.3.4 kv=0.22 kva=30 tap=1 conn=wye
New Reactor.TF397842 phases=1 bus1=1810624.4 R=15 X=0 basefreq=60

New transformer.397912 phases=3 xhl=4.89 %r=1.06 windings=2 %loadloss=1.06 %noloadloss=0.24888888888888888
~ wdg=1 bus=158898463.1.2.3 kv=13.8 kva=225 tap=1 conn=delta
~ wdg=2 bus=1811142.1.2.3.4 kv=0.22 kva=225 tap=1 conn=wye
New Reactor.TF397912 phases=1 bus1=1811142.4 R=15 X=0 basefreq=60

New transformer.398052 phases=3 xhl=3.7 %r=1.52 windings=2 %loadloss=1.5222222222222221 %noloadloss=0.37777777777777777
~ wdg=1 bus=164854094.1.2.3 kv=13.8 kva=45 tap=1 conn=delta
~ wdg=2 bus=1811912.1.2.3.4 kv=0.22 kva=45 tap=1 conn=wye
New Reactor.TF398052 phases=1 bus1=1811912.4 R=15 X=0 basefreq=60

New transformer.397772 phases=3 xhl=3.77 %r=1.34 windings=2 %loadloss=1.34 %noloadloss=0.34
~ wdg=1 bus=158898505.1.2.3 kv=13.8 kva=75 tap=1 conn=delta
~ wdg=2 bus=1810358.1.2.3.4 kv=0.22 kva=75 tap=1 conn=wye
New Reactor.TF397772 phases=1 bus1=1810358.4 R=15 X=0 basefreq=60

New transformer.397982 phases=3 xhl=3.77 %r=1.34 windings=2 %loadloss=1.34 %noloadloss=0.34
~ wdg=1 bus=179442783.1.2.3 kv=13.8 kva=75 tap=1 conn=delta
~ wdg=2 bus=1811345.1.2.3.4 kv=0.22 kva=75 tap=1 conn=wye
New Reactor.TF397982 phases=1 bus1=1811345.4 R=15 X=0 basefreq=60

New transformer.398122 phases=3 xhl=3.7 %r=1.52 windings=2 %loadloss=1.5222222222222221 %noloadloss=0.37777777777777777
~ wdg=1 bus=158898430.1.2.3 kv=13.8 kva=45 tap=1 conn=delta
~ wdg=2 bus=1812710.1.2.3.4 kv=0.22 kva=45 tap=1 conn=wye
New Reactor.TF398122 phases=1 bus1=1812710.4 R=15 X=0 basefreq=60

New transformer.398024 phases=3 xhl=3.7 %r=1.52 windings=2 %loadloss=1.5222222222222221 %noloadloss=0.37777777777777777
~ wdg=1 bus=158898431.1.2.3 kv=13.8 kva=45 tap=1 conn=delta
~ wdg=2 bus=1811716.1.2.3.4 kv=0.22 kva=45 tap=1 conn=wye
New Reactor.TF398024 phases=1 bus1=1811716.4 R=15 X=0 basefreq=60

New transformer.397933 phases=3 xhl=3.64 %r=1.67 windings=2 %loadloss=1.6666666666666667 %noloadloss=0.43333333333333335
~ wdg=1 bus=179442784.1.2.3 kv=13.8 kva=30 tap=1 conn=delta
~ wdg=2 bus=1811184.1.2.3.4 kv=0.22 kva=30 tap=1 conn=wye
New Reactor.TF397933 phases=1 bus1=1811184.4 R=15 X=0 basefreq=60

New transformer.398206 phases=3 xhl=3.64 %r=1.67 windings=2 %loadloss=1.6666666666666667 %noloadloss=0.43333333333333335
~ wdg=1 bus=158898415.1.2.3 kv=13.8 kva=30 tap=1 conn=delta
~ wdg=2 bus=1813732.1.2.3.4 kv=0.22 kva=30 tap=1 conn=wye
New Reactor.TF398206 phases=1 bus1=1813732.4 R=15 X=0 basefreq=60

New transformer.398031 phases=3 xhl=3.7 %r=1.52 windings=2 %loadloss=1.5222222222222221 %noloadloss=0.37777777777777777
~ wdg=1 bus=164854100.1.2.3 kv=13.8 kva=45 tap=1 conn=delta
~ wdg=2 bus=1811800.1.2.3.4 kv=0.22 kva=45 tap=1 conn=wye
New Reactor.TF398031 phases=1 bus1=1811800.4 R=15 X=0 basefreq=60

New transformer.398157 phases=3 xhl=3.7 %r=1.52 windings=2 %loadloss=1.5222222222222221 %noloadloss=0.37777777777777777
~ wdg=1 bus=160119088.1.2.3 kv=13.8 kva=45 tap=1 conn=delta
~ wdg=2 bus=1813074.1.2.3.4 kv=0.22 kva=45 tap=1 conn=wye
New Reactor.TF398157 phases=1 bus1=1813074.4 R=15 X=0 basefreq=60

New transformer.398269 phases=3 xhl=3.64 %r=1.67 windings=2 %loadloss=1.6666666666666667 %noloadloss=0.43333333333333335
~ wdg=1 bus=164854097.1.2.3 kv=13.8 kva=30 tap=1 conn=delta
~ wdg=2 bus=1814334.1.2.3.4 kv=0.22 kva=30 tap=1 conn=wye
New Reactor.TF398269 phases=1 bus1=1814334.4 R=15 X=0 basefreq=60

New transformer.433262 phases=3 xhl=4.89 %r=1.02 windings=2 %loadloss=1.1333333333333333 %noloadloss=0.28888888888888886
~ wdg=1 bus=166897544.1.2.3 kv=13.8 kva=450 tap=1 conn=delta
~ wdg=2 bus=2265421.1.2.3.4 kv=0.22 kva=450 tap=1 conn=wye
New Reactor.TF433262 phases=1 bus1=2265421.4 R=15 X=0 basefreq=60

New transformer.433227 phases=3 xhl=3.81 %r=1.22 windings=2 %loadloss=1.2232142857142858 %noloadloss=0.29910714285714285
~ wdg=1 bus=158898055.1.2.3 kv=13.8 kva=112 tap=1 conn=delta
~ wdg=2 bus=2265358.1.2.3.4 kv=0.22 kva=112 tap=1 conn=wye
New Reactor.TF433227 phases=1 bus1=2265358.4 R=15 X=0 basefreq=60

New transformer.437385 phases=3 xhl=4.89 %r=1.06 windings=2 %loadloss=1.4454545454545455 %noloadloss=0.3393939393939394
~ wdg=1 bus=158898294.1.2.3 kv=13.8 kva=165 tap=1 conn=delta
~ wdg=2 bus=2294471.1.2.3.4 kv=0.22 kva=165 tap=1 conn=wye
New Reactor.TF437385 phases=1 bus1=2294471.4 R=15 X=0 basefreq=60

New transformer.436013 phases=3 xhl=4.96 %r=0.66 windings=2 %loadloss=1.0472589792060492 %noloadloss=0.21928166351606806
~ wdg=1 bus=158898311.1.2.3 kv=13.8 kva=1587 tap=1 conn=delta
~ wdg=2 bus=2282018.1.2.3.4 kv=0.22 kva=1587 tap=1 conn=wye
New Reactor.TF436013 phases=1 bus1=2282018.4 R=15 X=0 basefreq=60

New transformer.431092 phases=1 xhl=1.921 xht=1.921 xlt= 1.537 %r=1.6 windings=3 %loadloss=1.6 %noloadloss=0.4
~ wdg=1 bus=182128167.1 kv=7.96 kva=15 tap=1 conn=Wye
~ wdg=2 bus=2247697.1.4 kv=0.24 kva=15 tap=1 conn=wye
~ wdg=3 bus=2247697.4.2 kv=0.24 kva=15 tap=1 conn=wye
New Reactor.TF431092 phases=1 bus1=2247697.4 R=15 X=0 basefreq=60

New transformer.431085 phases=1 xhl=1.625 xht=1.625 xlt= 1.3 %r=1.9 windings=3 %loadloss=1.9 %noloadloss=0.6
~ wdg=1 bus=126410344.1 kv=7.96 kva=5 tap=1 conn=Wye
~ wdg=2 bus=2247683.1.4 kv=0.24 kva=5 tap=1 conn=wye
~ wdg=3 bus=2247683.4.2 kv=0.24 kva=5 tap=1 conn=wye
New Reactor.TF431085 phases=1 bus1=2247683.4 R=15 X=0 basefreq=60

New transformer.431099 phases=1 xhl=1.735 xht=1.735 xlt= 1.388 %r=1.8 windings=3 %loadloss=1.8 %noloadloss=0.45
~ wdg=1 bus=126410379.1 kv=7.96 kva=10 tap=1 conn=Wye
~ wdg=2 bus=2247711.1.4 kv=0.24 kva=10 tap=1 conn=wye