New load.bt1811833-1 phases=3 bus=1002443578.1.2.3.4 model=2 kv=0.22 kw=7.873695776255709 pf=0.92 conn=delta status=variable vmaxpu=1.5 vminpu=0.92 daily=COM1_6
New load.bt1811833-2 phases=3 bus=1002443578.1.2.3.4 model=3 kv=0.22 kw=7.873695776255709 pf=0.92 conn=delta status=variable vmaxpu=1.5 vminpu=0.92 daily=COM1_6
New load.bt1813002-1 phases=1 bus=1002430838.1.2.4 model=2 kv=0.24 kw=2.5128544520547944 pf=0.92 conn=delta status=variable vmaxpu=1.5 vminpu=0.92 daily=RUR1_19
New load.bt1813002-2 phases=1 bus=1002430838.1.2.4 model=3 kv=0.24 kw=2.5128544520547944 pf=0.92 conn=delta status=variable vmaxpu=1.5 vminpu=0.92 daily=RUR1_19
New load.bt1813827-1 phases=1 bus=1002430593.1.2.4 model=2 kv=0.24 kw=0.9461118721461188 pf=0.92 conn=delta status=variable vmaxpu=1.5 vminpu=0.92 daily=RUR1_19
New load.bt1813827-2 phases=1 bus=1002430593.1.2.4 model=3 kv=0.24 kw=0.9461118721461188 pf=0.92 conn=delta status=variable vmaxpu=1.5 vminpu=0.92 daily=RUR1_19
New load.bt1814465-1 phases=1 bus=1002430964.1.2.4 model=2 kv=0.24 kw=1.5990513698630138 pf=0.92 conn=delta status=variable vmaxpu=1.5 vminpu=0.92 daily=RUR1_19
New load.bt1814465-2 phases=1 bus=1002430964.1.2.4 model=3 kv=0.24 kw=1.5990513698630138 pf=0.92 conn=delta status=variable vmaxpu=1.5 vminpu=0.92 daily=RUR1_19
New load.bt1815435-1 phases=1 bus=1002431601.1.2.4 model=2 kv=0.24 kw=0.8418578767123288 pf=0.92 conn=delta status=variable vmaxpu=1.5 vminpu=0.92 daily=RUR1_19
New load.bt1815435-2 phases=1 bus=1002431601.1.2.4 model=3 kv=0.24 kw=0.8418578767123288 pf=0.92 conn=delta status=variable vmaxpu=1.5 vminpu=0.92 daily=RUR1_19
New load.bt1815489-1 phases=3 bus=1003239765.1.2.3.4 model=2 kv=0.22 kw=1.674304794520548 pf=0.92 conn=delta status=variable vmaxpu=1.5 vminpu=0.92 daily=RUR1_9
New load.bt1815489-2 phases=3 bus=1003239765.1.2.3.4 model=3 kv=0.22 kw=1.674304794520548 pf=0.92 conn=delta status=variable vmaxpu=1.5 vminpu=0.92 daily=RUR1_9
New load.bt1816940-1 phases=1 bus=1002431608.1.2.4 model=2 kv=0.24 kw=0.9608156392694063 pf=0.92 conn=delta status=variable vmaxpu=1.5 vminpu=0.92 daily=RUR1_19
New load.bt1816940-2 phases=1 bus=1002431608.1.2.4 model=3 kv=0.24 kw=0.9608156392694063 pf=0.92 conn=delta status=variable vmaxpu=1.5 vminpu=0.92 daily=RUR1_19
New load.bt1817425-1 phases=1 bus=1002430432.1.2.4 model=2 kv=0.24 kw=0.5647505707762557 pf=0.92 conn=delta status=variable vmaxpu=1.5 vminpu=0.92 daily=RUR1_19
New load.bt1817425-2 phases=1 bus=1002430432.1.2.4 model=3 kv=0.24 kw=0.5647505707762557 pf=0.92 conn=delta status=variable vmaxpu=1.5 vminpu=0.92 daily=RUR1_19
New load.bt1817586-1 phases=1 bus=1002431132.1.2.4 model=2 kv=0.24 kw=1.2851946347031964 pf=0.92 conn=delta status=variable vmaxpu=1.5 vminpu=0.92 daily=RUR1_19
New load.bt1817586-2 phases=1 bus=1002431132.1.2.4 model=3 kv=0.24 kw=1.2851946347031964 pf=0.92 conn=delta status=variable vmaxpu=1.5 vminpu=0.92 daily=RUR1_19
New load.bt1819140-1 phases=1 bus=1002431447.1.2.4 model=2 kv=0.24 kw=0.6308367579908676 pf=0.92 conn=delta status=variable vmaxpu=1.5 vminpu=0.92 daily=COM1_21
New load.bt1819140-2 phases=1 bus=1002431447.1.2.4 model=3 kv=0.24 kw=0.6308367579908676 pf=0.92 conn=delta status=variable vmaxpu=1.5 vminpu=0.92 daily=COM1_21
New load.bt1819913-1 phases=1 bus=1002431083.1.2.4 model=2 kv=0.24 kw=0.844613584474886 pf=0.92 conn=delta status=variable vmaxpu=1.5 vminpu=0.92 daily=COM1_21
New load.bt1819913-2 phases=1 bus=1002431083.1.2.4 model=3 kv=0.24 kw=0.844613584474886 pf=0.92 conn=delta status=variable vmaxpu=1.5 vminpu=0.92 daily=COM1_21
New load.bt1820359-1 phases=1 bus=1002431076.1.2.4 model=2 kv=0.24 kw=0.6288852739726027 pf=0.92 conn=delta status=variable vmaxpu=1.5 vminpu=0.92 daily=RUR1_19
New load.bt1820359-2 phases=1 bus=1002431076.1.2.4 model=3 kv=0.24 kw=0.6288852739726027 pf=0.92 conn=delta status=variable vmaxpu=1.5 vminpu=0.92 daily=RUR1_19
New load.bt1824464-1 phases=1 bus=1002429830.1.2.4 model=2 kv=0.24 kw=0.46165810502283106 pf=0.92 conn=delta status=variable vmaxpu=1.5 vminpu=0.92 daily=RUR1_19
New load.bt1824464-2 phases=1 bus=1002429830.1.2.4 model=3 kv=0.24 kw=0.46165810502283106 pf=0.92 conn=delta status=variable vmaxpu=1.5 vminpu=0.92 daily=RUR1_19
New load.bt1826823-1 phases=1 bus=1002429914.1.2.4 model=2 kv=0.24 kw=0.6212391552511416 pf=0.92 conn=delta status=variable vmaxpu=1.5 vminpu=0.92 daily=RUR1_19
New load.bt1826823-2 phases=1 bus=1002429914.1.2.4 model=3 kv=0.24 kw=0.6212391552511416 pf=0.92 conn=delta status=variable vmaxpu=1.5 vminpu=0.92 daily=RUR1_19
New load.bt1826871-1 phases=1 bus=1002431118.1.2.4 model=2 kv=0.24 kw=0.3764805936073059 pf=0.92 conn=delta status=variable vmaxpu=1.5 vminpu=0.92 daily=RUR1_19
New load.bt1826871-2 phases=1 bus=1002431118.1.2.4 model=3 kv=0.24 kw=0.3764805936073059 pf=0.92 conn=delta status=variable vmaxpu=1.5 vminpu=0.92 daily=RUR1_19
New load.bt1831415-1 phases=1 bus=1002431244.1.2.4 model=2 kv=0.24 kw=0.3720376712328767 pf=0.92 conn=delta status=variable vmaxpu=1.5 vminpu=0.92 daily=COM1_21
New load.bt1831415-2 phases=1 bus=1002431244.1.2.4 model=3 kv=0.24 kw=0.3720376712328767 pf=0.92 conn=delta status=variable vmaxpu=1.5 vminpu=0.92 daily=COM1_21
New load.bt1834040-1 phases=1 bus=1002431594.1.2.4 model=2 kv=0.24 kw=0.32677111872146125 pf=0.92 conn=delta status=variable vmaxpu=1.5 vminpu=0.92 daily=RES1_18
New load.bt1834040-2 phases=1 bus=1002431594.1.2.4 model=3 kv=0.24 kw=0.32677111872146125 pf=0.92 conn=delta status=variable vmaxpu=1.5 vminpu=0.92 daily=RES1_18
New load.bt1835920-1 phases=1 bus=1002432133.1.2.4 model=2 kv=0.24 kw=0.25658390410958903 pf=0.92 conn=delta status=variable vmaxpu=1.5 vminpu=0.92 daily=RUR1_19
New load.bt1835920-2 phases=1 bus=1002432133.1.2.4 model=3 kv=0.24 kw=0.25658390410958903 pf=0.92 conn=delta status=variable vmaxpu=1.5 vminpu=0.92 daily=RUR1_19
New load.bt1837417-1 phases=1 bus=1002431629.1.2.4 model=2 kv=0.24 kw=0.489888698630137 pf=0.92 conn=delta status=variable vmaxpu=1.5 vminpu=0.92 daily=RES1_18
New load.bt1837417-2 phases=1 bus=1002431629.1.2.4 model=3 kv=0.24 kw=0.489888698630137 pf=0.92 conn=delta status=variable vmaxpu=1.5 vminpu=0.92 daily=RES1_18
New load.bt1837735-1 phases=1 bus=1002431013.1.2.4 model=2 kv=0.24 kw=0.31396518264840184 pf=0.92 conn=delta status=variable vmaxpu=1.5 vminpu=0.92 daily=RUR1_19
New load.bt1837735-2 phases=1 bus=1002431013.1.2.4 model=3 kv=0.24 kw=0.31396518264840184 pf=0.92 conn=delta status=variable vmaxpu=1.5 vminpu=0.92 daily=RUR1_19
New load.bt1839464-1 phases=1 bus=1002432203.1.2.4 model=2 kv=0.24 kw=0.28805764840182646 pf=0.92 conn=delta status=variable vmaxpu=1.5 vminpu=0.92 daily=COM1_21
New load.bt1839464-2 phases=1 bus=1002432203.1.2.4 model=3 kv=0.24 kw=0.28805764840182646 pf=0.92 conn=delta status=variable vmaxpu=1.5 vminpu=0.92 daily=COM1_21
New load.bt1842114-1 phases=1 bus=1002431706.1.2.4 model=2 kv=0.24 kw=0.28742351598173516 pf=0.92 conn=delta status=variable vmaxpu=1.5 vminpu=0.92 daily=RUR1_19
New load.bt1842114-2 phases=1 bus=1002431706.1.2.4 model=3 kv=0.24 kw=0.28742351598173516 pf=0.92 conn=delta status=variable vmaxpu=1.5 vminpu=0.92 daily=RUR1_19
New load.bt1843524-1 phases=1 bus=1002430229.1.2.4 model=2 kv=0.24 kw=0.27930536529680366 pf=0.92 conn=delta status=variable vmaxpu=1.5 vminpu=0.92 daily=RUR1_19
New load.bt1843524-2 phases=1 bus=1002430229.1.2.4 model=3 kv=0.24 kw=0.27930536529680366 pf=0.92 conn=delta status=variable vmaxpu=1.5 vminpu=0.92 daily=RUR1_19
New load.bt1849426-1 phases=1 bus=1003238372.1.2.4 model=2 kv=0.24 kw=0.3541529680365297 pf=0.92 conn=delta status=variable vmaxpu=1.5 vminpu=0.92 daily=RUR1_19
New load.bt1849426-2 phases=1 bus=1003238372.1.2.4 model=3 kv=0.24 kw=0.3541529680365297 pf=0.92 conn=delta status=variable vmaxpu=1.5 vminpu=0.92 daily=RUR1_19
New load.bt1858630-1 phases=1 bus=1002432014.1.2.4 model=2 kv=0.24 kw=0.2125593607305936 pf=0.92 conn=delta status=variable vmaxpu=1.5 vminpu=0.92 daily=RUR1_19
New load.bt1858630-2 phases=1 bus=1002432014.1.2.4 model=3 kv=0.24 kw=0.2125593607305936 pf=0.92 conn=delta status=variable vmaxpu=1.5 vminpu=0.92 daily=RUR1_19
New load.bt1870691-1 phases=1 bus=1002431034.1.2.4 model=2 kv=0.24 kw=0.20642237442922373 pf=0.92 conn=delta status=variable vmaxpu=1.5 vminpu=0.92 daily=COM1_21
New load.bt1870691-2 phases=1 bus=1002431034.1.2.4 model=3 kv=0.24 kw=0.20642237442922373 pf=0.92 conn=delta status=variable vmaxpu=1.5 vminpu=0.92 daily=COM1_21
New load.bt1872243-1 phases=1 bus=1002432007.1.2.4 model=2 kv=0.24 kw=0.1940296803652968 pf=0.92 conn=delta status=variable vmaxpu=1.5 vminpu=0.92 daily=RUR1_19
New load.bt1872243-2 phases=1 bus=1002432007.1.2.4 model=3 kv=0.24 kw=0.1940296803652968 pf=0.92 conn=delta status=variable vmaxpu=1.5 vminpu=0.92 daily=RUR1_19
New load.bt1873428-1 phases=3 bus=1002430761.1.2.3.4 model=2 kv=0.22 kw=0.1897420091324201 pf=0.92 conn=delta status=variable vmaxpu=1.5 vminpu=0.92 daily=RUR1_19
New load.bt1873428-2 phases=3 bus=1002430761.1.2.3.4 model=3 kv=0.22 kw=0.1897420091324201 pf=0.92 conn=delta status=variable vmaxpu=1.5 vminpu=0.92 daily=RUR1_19
New load.bt1886930-1 phases=1 bus=1003238365.1.2.4 model=2 kv=0.24 kw=0.27146632420091327 pf=0.92 conn=delta status=variable vmaxpu=1.5 vminpu=0.92 daily=RUR1_19
New load.bt1886930-2 phases=1 bus=1003238365.1.2.4 model=3 kv=0.24 kw=0.27146632420091327 pf=0.92 conn=delta status=variable vmaxpu=1.5 vminpu=0.92 daily=RUR1_19
New load.bt1887494-1 phases=1 bus=1003238414.1.2.4 model=2 kv=0.24 kw=0.18134474885844748 pf=0.92 conn=delta status=variable vmaxpu=1.5 vminpu=0.92 daily=RUR1_19
New load.bt1887494-2 phases=1 bus=1003238414.1.2.4 model=3 kv=0.24 kw=0.18134474885844748 pf=0.92 conn=delta status=variable vmaxpu=1.5 vminpu=0.92 daily=RUR1_19
New load.bt1917553-1 phases=1 bus=1002430978.1.2.4 model=2 kv=0.24 kw=0.12650913242009132 pf=0.92 conn=delta status=variable vmaxpu=1.5 vminpu=0.92 daily=RUR1_19
New load.bt1917553-2 phases=1 bus=1002430978.1.2.4 model=3 kv=0.24 kw=0.12650913242009132 pf=0.92 conn=delta status=variable vmaxpu=1.5 vminpu=0.92 daily=RUR1_19
New load.bt1925166-1 phases=1 bus=1002430754.1.2.4 model=2 kv=0.24 kw=0.21801598173515987 pf=0.92 conn=delta status=variable vmaxpu=1.5 vminpu=0.92 daily=RUR1_19
New load.bt1925166-2 phases=1 bus=1002430754.1.2.4 model=3 kv=0.24 kw=0.21801598173515987 pf=0.92 conn=delta status=variable vmaxpu=1.5 vminpu=0.92 daily=RUR1_19
New load.bt1928219-1 phases=1 bus=1002431622.1.2.4 model=2 kv=0.24 kw=0.15861073059360728 pf=0.92 conn=delta status=variable vmaxpu=1.5 vminpu=0.92 daily=COM1_21
New load.bt1928219-2 phases=1 bus=1002431622.1.2.4 model=3 kv=0.24 kw=0.15861073059360728 pf=0.92 conn=delta status=variable vmaxpu=1.5 vminpu=0.92 daily=COM1_21
New load.bt1967313-1 phases=1 bus=1002430341.1.2.4 model=2 kv=0.24 kw=0.10830650684931507 pf=0.92 conn=delta status=variable vmaxpu=1.5 vminpu=0.92 daily=RES1_18
New load.bt1967313-2 phases=1 bus=1002430341.1.2.4 model=3 kv=0.24 kw=0.10830650684931507 pf=0.92 conn=delta status=variable vmaxpu=1.5 vminpu=0.92 daily=RES1_18
New load.bt1993922-1 phases=1 bus=1002430985.1.2.4 model=2 kv=0.24 kw=0.058646118721461186 pf=0.92 conn=delta status=variable vmaxpu=1.5 vminpu=0.92 daily=RES1_18
New load.bt1993922-2 phases=1 bus=1002430985.1.2.4 model=3 kv=0.24 kw=0.058646118721461186 pf=0.92 conn=delta status=variable vmaxpu=1.5 vminpu=0.92 daily=RES1_18
New load.bt2024317-1 phases=1 bus=1002430145.1.2.4 model=2 kv=0.24 kw=0.7261872146118722 pf=0.92 conn=delta status=variable vmaxpu=1.5 vminpu=0.92 daily=COM1_21
New load.bt2024317-2 phases=1 bus=1002430145.1.2.4 model=3 kv=0.24 kw=0.7261872146118722 pf=0.92 conn=delta status=variable vmaxpu=1.5 vminpu=0.92 daily=COM1_21
New load.bt2031123-1 phases=1 bus=1002431216.1.2.4 model=2 kv=0.24 kw=0.041046803652968034 pf=0.92 conn=delta status=variable vmaxpu=1.5 vminpu=0.92 daily=RES1_18
New load.bt2031123-2 phases=1 bus=1002431216.1.2.4 model=3 kv=0.24 kw=0.041046803652968034 pf=0.92 conn=delta status=variable vmaxpu=1.5 vminpu=0.92 daily=RES1_18
New load.bt2064439-1 phases=1 bus=1002431510.1.2.4 model=2 kv=0.24 kw=0.07637671232876711 pf=0.92 conn=delta status=variable vmaxpu=1.5 vminpu=0.92 daily=RUR1_19
New load.bt2064439-2 phases=1 bus=1002431510.1.2.4 model=3 kv=0.24 kw=0.07637671232876711 pf=0.92 conn=delta status=variable vmaxpu=1.5 vminpu=0.92 daily=RUR1_19
New load.bt2131101-1 phases=1 bus=1003238379.1.2.4 model=2 kv=0.24 kw=0.06898287671232876 pf=0.92 conn=delta status=variable vmaxpu=1.5 vminpu=0.92 daily=RUR1_19
New load.bt2131101-2 phases=1 bus=1003238379.1.2.4 model=3 kv=0.24 kw=0.06898287671232876 pf=0.92 conn=delta status=variable vmaxpu=1.5 vminpu=0.92 daily=RUR1_19
New load.bt2154487-1 phases=1 bus=1002430271.1.2.4 model=2 kv=0.24 kw=0.06011187214611871 pf=0.92 conn=delta status=variable vmaxpu=1.5 vminpu=0.92 daily=COM1_21
New load.bt2154487-2 phases=1 bus=1002430271.1.2.4 model=3 kv=0.24 kw=0.06011187214611871 pf=0.92 conn=delta status=variable vmaxpu=1.5 vminpu=0.92 daily=COM1_21
New load.bt2177837-1 phases=1 bus=1002431181.1.2.4 model=2 kv=0.24 kw=0.3429309360730594 pf=0.92 conn=delta status=variable vmaxpu=1.5 vminpu=0.92 daily=RUR1_19
New load.bt2177837-2 phases=1 bus=1002431181.1.2.4 model=3 kv=0.24 kw=0.3429309360730594 pf=0.92 conn=delta status=variable vmaxpu=1.5 vminpu=0.92 daily=RUR1_19
New load.bt2196549-1 phases=1 bus=1002431552.1.2.4 model=2 kv=0.24 kw=0.06022374429223745 pf=0.92 conn=delta status=variable vmaxpu=1.5 vminpu=0.92 daily=RUR1_19
New load.bt2196549-2 phases=1 bus=1002431552.1.2.4 model=3 kv=0.24 kw=0.06022374429223745 pf=0.92 conn=delta status=variable vmaxpu=1.5 vminpu=0.92 daily=RUR1_19
New load.bt2254203-1 phases=1 bus=1002430257.1.2.4 model=2 kv=0.24 kw=0.03907248858447489 pf=0.92 conn=delta status=variable vmaxpu=1.5 vminpu=0.92 daily=RUR1_19
New load.bt2254203-2 phases=1 bus=1002430257.1.2.4 model=3 kv=0.24 kw=0.03907248858447489 pf=0.92 conn=delta status=variable vmaxpu=1.5 vminpu=0.92 daily=RUR1_19
New load.bt2259978-1 phases=1 bus=1002431454.1.2.4 model=2 kv=0.24 kw=0.0012465753424657534 pf=0.92 conn=delta status=variable vmaxpu=1.5 vminpu=0.92 daily=RUR1_19
New load.bt2259978-2 phases=1 bus=1002431454.1.2.4 model=3 kv=0.24 kw=0.0012465753424657534 pf=0.92 conn=delta status=variable vmaxpu=1.5 vminpu=0.92 daily=RUR1_19
New load.bt2285662-1 phases=1 bus=1002430075.1.2.4 model=2 kv=0.24 kw=0.10453710045662101 pf=0.92 conn=delta status=variable vmaxpu=1.5 vminpu=0.92 daily=COM1_21
New load.bt2285662-2 phases=1 bus=1002430075.1.2.4 model=3 kv=0.24 kw=0.10453710045662101 pf=0.92 conn=delta status=variable vmaxpu=1.5 vminpu=0.92 daily=COM1_21
New load.bt2427610-1 phases=1 bus=1003240045.1.2.4 model=2 kv=0.24 kw=0.5342117579908676 pf=0.92 conn=delta status=variable vmaxpu=1.5 vminpu=0.92 daily=RES1_25
New load.bt2427610-2 phases=1 bus=1003240045.1.2.4 model=3 kv=0.24 kw=0.5342117579908676 pf=0.92 conn=delta status=variable vmaxpu=1.5 vminpu=0.92 daily=RES1_25
New load.bt2429406-1 phases=3 bus=1002433407.1.2.3.4 model=2 kv=0.22 kw=0.1870285388127854 pf=0.92 conn=delta status=variable vmaxpu=1.5 vminpu=0.92 daily=RES1_6
New load.bt2429406-2 phases=3 bus=1002433407.1.2.3.4 model=3 kv=0.22 kw=0.1870285388127854 pf=0.92 conn=delta status=variable vmaxpu=1.5 vminpu=0.92 daily=RES1_6
New load.bt2435053-1 phases=1 bus=1002434625.1.2.4 model=2 kv=0.24 kw=0.3899486301369863 pf=0.92 conn=delta status=variable vmaxpu=1.5 vminpu=0.92 daily=RUR1_11
New load.bt2435053-2 phases=1 bus=1002434625.1.2.4 model=3 kv=0.24 kw=0.3899486301369863 pf=0.92 conn=delta status=variable vmaxpu=1.5 vminpu=0.92 daily=RUR1_11
New load.bt2437527-1 phases=1 bus=1003238554.1.2.4 model=2 kv=0.24 kw=0.3362151826484019 pf=0.92 conn=delta status=variable vmaxpu=1.5 vminpu=0.92 daily=RUR1_11
New load.bt2437527-2 phases=1 bus=1003238554.1.2.4 model=3 kv=0.24 kw=0.3362151826484019 pf=0.92 conn=delta status=variable vmaxpu=1.5 vminpu=0.92 daily=RUR1_11
New load.bt2442540-1 phases=1 bus=1004145320.2.3.4 model=2 kv=0.22 kw=0.20957305936073062 pf=0.92 conn=delta status=variable vmaxpu=1.5 vminpu=0.92 daily=RES1_25
New load.bt2442540-2 phases=1 bus=1004145320.2.3.4 model=3 kv=0.22 kw=0.20957305936073062 pf=0.92 conn=delta status=variable vmaxpu=1.5 vminpu=0.92 daily=RES1_25
New load.bt2444028-1 phases=1 bus=1003240010.1.2.4 model=2 kv=0.24 kw=0.06756221461187215 pf=0.92 conn=delta status=variable vmaxpu=1.5 vminpu=0.92 daily=RES1_25
New load.bt2444028-2 phases=1 bus=1003240010.1.2.4 model=3 kv=0.24 kw=0.06756221461187215 pf=0.92 conn=delta status=variable vmaxpu=1.5 vminpu=0.92 daily=RES1_25
New load.bt2447713-1 phases=3 bus=1002432546.1.2.3.4 model=2 kv=0.22 kw=0.2624703196347032 pf=0.92 conn=delta status=variable vmaxpu=1.5 vminpu=0.92 daily=COM1_11
New load.bt2447713-2 phases=3 bus=1002432546.1.2.3.4 model=3 kv=0.22 kw=0.2624703196347032 pf=0.92 conn=delta status=variable vmaxpu=1.5 vminpu=0.92 daily=COM1_11
New load.bt2449916-1 phases=1 bus=1003240003.1.2.4 model=2 kv=0.24 kw=0.2226826484018265 pf=0.92 conn=delta status=variable vmaxpu=1.5 vminpu=0.92 daily=RES1_25
New load.bt2449916-2 phases=1 bus=1003240003.1.2.4 model=3 kv=0.24 kw=0.2226826484018265 pf=0.92 conn=delta status=variable vmaxpu=1.5 vminpu=0.92 daily=RES1_25
New load.bt2449931-1 phases=3 bus=1003240423.1.2.3.4 model=2 kv=0.22 kw=0.2274109589041096 pf=0.92 conn=delta status=variable vmaxpu=1.5 vminpu=0.92 daily=RES1_25
New load.bt2449931-2 phases=3 bus=1003240423.1.2.3.4 model=3 kv=0.22 kw=0.2274109589041096 pf=0.92 conn=delta status=variable vmaxpu=1.5 vminpu=0.92 daily=RES1_25
New load.bt2452214-1 phases=1 bus=1003239996.1.2.4 model=2 kv=0.24 kw=0.20324657534246576 pf=0.92 conn=delta status=variable vmaxpu=1.5 vminpu=0.92 daily=RES1_25
New load.bt2452214-2 phases=1 bus=1003239996.1.2.4 model=3 kv=0.24 kw=0.20324657534246576 pf=0.92 conn=delta status=variable vmaxpu=1.5 vminpu=0.92 daily=RES1_25
New load.bt2457139-1 phases=1 bus=1002434569.1.2.4 model=2 kv=0.24 kw=0.018541095890410957 pf=0.92 conn=delta status=variable vmaxpu=1.5 vminpu=0.92 daily=RES1_6
New load.bt2457139-2 phases=1 bus=1002434569.1.2.4 model=3 kv=0.24 kw=0.018541095890410957 pf=0.92 conn=delta status=variable vmaxpu=1.5 vminpu=0.92 daily=RES1_6
New load.bt2462244-1 phases=3 bus=1003240409.1.2.3.4 model=2 kv=0.22 kw=0.20980707762557077 pf=0.92 conn=delta status=variable vmaxpu=1.5 vminpu=0.92 daily=RES1_25
New load.bt2462244-2 phases=3 bus=1003240409.1.2.3.4 model=3 kv=0.22 kw=0.20980707762557077 pf=0.92 conn=delta status=variable vmaxpu=1.5 vminpu=0.92 daily=RES1_25
New load.bt2462359-1 phases=1 bus=1003240101.1.2.4 model=2 kv=0.24 kw=0.18372203196347028 pf=0.92 conn=delta status=variable vmaxpu=1.5 vminpu=0.92 daily=RES1_25
New load.bt2462359-2 phases=1 bus=1003240101.1.2.4 model=3 kv=0.24 kw=0.18372203196347028 pf=0.92 conn=delta status=variable vmaxpu=1.5 vminpu=0.92 daily=RES1_25
New load.bt2474657-1 phases=1 bus=1003240248.1.2.4 model=2 kv=0.24 kw=0.08652054794520547 pf=0.92 conn=delta status=variable vmaxpu=1.5 vminpu=0.92 daily=RES1_25
New load.bt2474657-2 phases=1 bus=1003240248.1.2.4 model=3 kv=0.24 kw=0.08652054794520547 pf=0.92 conn=delta status=variable vmaxpu=1.5 vminpu=0.92 daily=RES1_25
New load.bt2475577-1 phases=3 bus=1003240332.1.2.3.4 model=2 kv=0.22 kw=0.17902226027397256 pf=0.92 conn=delta status=variable vmaxpu=1.5 vminpu=0.92 daily=COM1_25
New load.bt2475577-2 phases=3 bus=1003240332.1.2.3.4 model=3 kv=0.22 kw=0.17902226027397256 pf=0.92 conn=delta status=variable vmaxpu=1.5 vminpu=0.92 daily=COM1_25
New load.bt2476366-1 phases=1 bus=1003240619.1.2.4 model=2 kv=0.22 kw=0.11153196347031963 pf=0.92 conn=delta status=variable vmaxpu=1.5 vminpu=0.92 daily=RES1_25
New load.bt2476366-2 phases=1 bus=1003240619.1.2.4 model=3 kv=0.22 kw=0.11153196347031963 pf=0.92 conn=delta status=variable vmaxpu=1.5 vminpu=0.92 daily=RES1_25
New load.bt2484223-1 phases=3 bus=1004146944.1.2.3.4 model=2 kv=0.22 kw=0.1561181506849315 pf=0.92 conn=delta status=variable vmaxpu=1.5 vminpu=0.92 daily=RES1_25
New load.bt2484223-2 phases=3 bus=1004146944.1.2.3.4 model=3 kv=0.22 kw=0.1561181506849315 pf=0.92 conn=delta status=variable vmaxpu=1.5 vminpu=0.92 daily=RES1_25
New load.bt2485046-1 phases=1 bus=1003240220.1.2.4 model=2 kv=0.24 kw=0.17270376712328764 pf=0.92 conn=delta status=variable vmaxpu=1.5 vminpu=0.92 daily=RES1_25
New load.bt2485046-2 phases=1 bus=1003240220.1.2.4 model=3 kv=0.24 kw=0.17270376712328764 pf=0.92 conn=delta status=variable vmaxpu=1.5 vminpu=0.92 daily=RES1_25
New load.bt2500107-1 phases=1 bus=1004145306.1.2.4 model=2 kv=0.24 kw=0.1365941780821918 pf=0.92 conn=delta status=variable vmaxpu=1.5 vminpu=0.92 daily=RES1_25
New load.bt2500107-2 phases=1 bus=1004145306.1.2.4 model=3 kv=0.24 kw=0.1365941780821918 pf=0.92 conn=delta status=variable vmaxpu=1.5 vminpu=0.92 daily=RES1_25
New load.bt2505812-1 phases=1 bus=1003242474.1.2.4 model=2 kv=0.24 kw=0.14794805936073058 pf=0.92 conn=delta status=variable vmaxpu=1.5 vminpu=0.92 daily=RES1_25
New load.bt2505812-2 phases=1 bus=1003242474.1.2.4 model=3 kv=0.24 kw=0.14794805936073058 pf=0.92 conn=delta status=variable vmaxpu=1.5 vminpu=0.92 daily=RES1_25
New load.bt2506568-1 phases=1 bus=1004145481.1.2.4 model=2 kv=0.22 kw=0.15388527397260274 pf=0.92 conn=delta status=variable vmaxpu=1.5 vminpu=0.92 daily=RES1_25
New load.bt2506568-2 phases=1 bus=1004145481.1.2.4 model=3 kv=0.22 kw=0.15388527397260274 pf=0.92 conn=delta status=variable vmaxpu=1.5 vminpu=0.92 daily=RES1_25
New load.bt2529531-1 phases=1 bus=1004145299.1.2.4 model=2 kv=0.24 kw=0.1349874429223744 pf=0.92 conn=delta status=variable vmaxpu=1.5 vminpu=0.92 daily=RES1_25
New load.bt2529531-2 phases=1 bus=1004145299.1.2.4 model=3 kv=0.24 kw=0.1349874429223744 pf=0.92 conn=delta status=variable vmaxpu=1.5 vminpu=0.92 daily=RES1_25
New load.bt2539796-1 phases=1 bus=1002433498.1.2.4 model=2 kv=0.24 kw=0.14825856164383563 pf=0.92 conn=delta status=variable vmaxpu=1.5 vminpu=0.92 daily=COM1_11
New load.bt2539796-2 phases=1 bus=1002433498.1.2.4 model=3 kv=0.24 kw=0.14825856164383563 pf=0.92 conn=delta status=variable vmaxpu=1.5 vminpu=0.92 daily=COM1_11
New load.bt2557825-1 phases=3 bus=1003240493.1.2.3.4 model=2 kv=0.22 kw=0.11610673515981737 pf=0.92 conn=delta status=variable vmaxpu=1.5 vminpu=0.92 daily=RES1_25
New load.bt2557825-2 phases=3 bus=1003240493.1.2.3.4 model=3 kv=0.22 kw=0.11610673515981737 pf=0.92 conn=delta status=variable vmaxpu=1.5 vminpu=0.92 daily=RES1_25
New load.bt2569058-1 phases=1 bus=1003240059.1.2.4 model=2 kv=0.24 kw=0.11398687214611873 pf=0.92 conn=delta status=variable vmaxpu=1.5 vminpu=0.92 daily=RES1_25
New load.bt2569058-2 phases=1 bus=1003240059.1.2.4 model=3 kv=0.24 kw=0.11398687214611873 pf=0.92 conn=delta status=variable vmaxpu=1.5 vminpu=0.92 daily=RES1_25
New load.bt2579948-1 phases=1 bus=1003240584.1.2.4 model=2 kv=0.22 kw=0.11672888127853882 pf=0.92 conn=delta status=variable vmaxpu=1.5 vminpu=0.92 daily=RES1_25
New load.bt2579948-2 phases=1 bus=1003240584.1.2.4 model=3 kv=0.22 kw=0.11672888127853882 pf=0.92 conn=delta status=variable vmaxpu=1.5 vminpu=0.92 daily=RES1_25
New load.bt2580085-1 phases=1 bus=1003240325.1.2.4 model=2 kv=0.22 kw=0.07587671232876714 pf=0.92 conn=delta status=variable vmaxpu=1.5 vminpu=0.92 daily=RES1_25
New load.bt2580085-2 phases=1 bus=1003240325.1.2.4 model=3 kv=0.22 kw=0.07587671232876714 pf=0.92 conn=delta status=variable vmaxpu=1.5 vminpu=0.92 daily=RES1_25
New load.bt2580992-1 phases=1 bus=1003240472.1.2.4 model=2 kv=0.24 kw=0.09962500000000002 pf=0.92 conn=delta status=variable vmaxpu=1.5 vminpu=0.92 daily=RES1_25
New load.bt2580992-2 phases=1 bus=1003240472.1.2.4 model=3 kv=0.24 kw=0.09962500000000002 pf=0.92 conn=delta status=variable vmaxpu=1.5 vminpu=0.92 daily=RES1_25
New load.bt2592131-1 phases=1 bus=1003240318.1.2.4 model=2 kv=0.24 kw=0.060401826484018255 pf=0.92 conn=delta status=variable vmaxpu=1.5 vminpu=0.92 daily=RES1_25
New load.bt2592131-2 phases=1 bus=1003240318.1.2.4 model=3 kv=0.24 kw=0.060401826484018255 pf=0.92 conn=delta status=variable vmaxpu=1.5 vminpu=0.92 daily=RES1_25
New load.bt2593559-1 phases=1 bus=1004538958.1.2.4 model=2 kv=0.24 kw=0.10830079908675799 pf=0.92 conn=delta status=variable vmaxpu=1.5 vminpu=0.92 daily=RES1_25
New load.bt2593559-2 phases=1 bus=1004538958.1.2.4 model=3 kv=0.24 kw=0.10830079908675799 pf=0.92 conn=delta status=variable vmaxpu=1.5 vminpu=0.92 daily=RES1_25
New load.bt2604208-1 phases=1 bus=1004145334.1.2.4 model=2 kv=0.24 kw=0.08840068493150685 pf=0.92 conn=delta status=variable vmaxpu=1.5 vminpu=0.92 daily=RES1_25
New load.bt2604208-2 phases=1 bus=1004145334.1.2.4 model=3 kv=0.24 kw=0.08840068493150685 pf=0.92 conn=delta status=variable vmaxpu=1.5 vminpu=0.92 daily=RES1_25
New load.bt2620406-1 phases=1 bus=1003242502.1.2.4 model=2 kv=0.24 kw=0.10487785388127853 pf=0.92 conn=delta status=variable vmaxpu=1.5 vminpu=0.92 daily=RES1_25
New load.bt2620406-2 phases=1 bus=1003242502.1.2.4 model=3 kv=0.24 kw=0.10487785388127853 pf=0.92 conn=delta status=variable vmaxpu=1.5 vminpu=0.92 daily=RES1_25
New load.bt2623248-1 phases=1 bus=1003240465.1.2.4 model=2 kv=0.24 kw=0.0828978310502283 pf=0.92 conn=delta status=variable vmaxpu=1.5 vminpu=0.92 daily=RES1_25
New load.bt2623248-2 phases=1 bus=1003240465.1.2.4 model=3 kv=0.24 kw=0.0828978310502283 pf=0.92 conn=delta status=variable vmaxpu=1.5 vminpu=0.92 daily=RES1_25
New load.bt2629604-1 phases=1 bus=1004145509.1.2.4 model=2 kv=0.22 kw=0.0829269406392694 pf=0.92 conn=delta status=variable vmaxpu=1.5 vminpu=0.92 daily=RES1_25
New load.bt2629604-2 phases=1 bus=1004145509.1.2.4 model=3 kv=0.22 kw=0.0829269406392694 pf=0.92 conn=delta status=variable vmaxpu=1.5 vminpu=0.92 daily=RES1_25
New load.bt2646917-1 phases=1 bus=1003240052.1.2.4 model=2 kv=0.24 kw=0.06993835616438356 pf=0.92 conn=delta status=variable vmaxpu=1.5 vminpu=0.92 daily=RES1_25
New load.bt2646917-2 phases=1 bus=1003240052.1.2.4 model=3 kv=0.24 kw=0.06993835616438356 pf=0.92 conn=delta status=variable vmaxpu=1.5 vminpu=0.92 daily=RES1_25
New load.bt2675762-1 phases=1 bus=1003240073.1.2.4 model=2 kv=0.24 kw=0.06582134703196349 pf=0.92 conn=delta status=variable vmaxpu=1.5 vminpu=0.92 daily=RES1_25
New load.bt2675762-2 phases=1 bus=1003240073.1.2.4 model=3 kv=0.24 kw=0.06582134703196349 pf=0.92 conn=delta status=variable vmaxpu=1.5 vminpu=0.92 daily=RES1_25
New load.bt2681894-1 phases=1 bus=1004145292.1.2.4 model=2 kv=0.22 kw=0.08409360730593607 pf=0.92 conn=delta status=variable vmaxpu=1.5 vminpu=0.92 daily=RES1_25
New load.bt2681894-2 phases=1 bus=1004145292.1.2.4 model=3 kv=0.22 kw=0.08409360730593607 pf=0.92 conn=delta status=variable vmaxpu=1.5 vminpu=0.92 daily=RES1_25
New load.bt2682937-1 phases=1 bus=1003239975.1.2.4 model=2 kv=0.24 kw=0.07271232876712327 pf=0.92 conn=delta status=variable vmaxpu=1.5 vminpu=0.92 daily=RES1_25
New load.bt2682937-2 phases=1 bus=1003239975.1.2.4 model=3 kv=0.24 kw=0.07271232876712327 pf=0.92 conn=delta status=variable vmaxpu=1.5 vminpu=0.92 daily=RES1_25
New load.bt2690508-1 phases=1 bus=1003240577.2.3.4 model=2 kv=0.22 kw=0.06973002283105022 pf=0.92 conn=delta status=variable vmaxpu=1.5 vminpu=0.92 daily=RES1_25
New load.bt2690508-2 phases=1 bus=1003240577.2.3.4 model=3 kv=0.22 kw=0.06973002283105022 pf=0.92 conn=delta status=variable vmaxpu=1.5 vminpu=0.92 daily=RES1_25
New load.bt2702966-1 phases=1 bus=1003239968.1.2.4 model=2 kv=0.24 kw=0.07420148401826485 pf=0.92 conn=delta status=variable vmaxpu=1.5 vminpu=0.92 daily=RES1_25
New load.bt2702966-2 phases=1 bus=1003239968.1.2.4 model=3 kv=0.24 kw=0.07420148401826485 pf=0.92 conn=delta status=variable vmaxpu=1.5 vminpu=0.92 daily=RES1_25
New load.bt2721724-1 phases=1 bus=1003240234.1.2.4 model=2 kv=0.24 kw=0.07276712328767124 pf=0.92 conn=delta status=variable vmaxpu=1.5 vminpu=0.92 daily=RES1_25
New load.bt2721724-2 phases=1 bus=1003240234.1.2.4 model=3 kv=0.24 kw=0.07276712328767124 pf=0.92 conn=delta status=variable vmaxpu=1.5 vminpu=0.92 daily=RES1_25
New load.bt2773834-1 phases=1 bus=1003240514.1.2.4 model=2 kv=0.22 kw=0.04445091324200914 pf=0.92 conn=delta status=variable vmaxpu=1.5 vminpu=0.92 daily=RES1_25
New load.bt2773834-2 phases=1 bus=1003240514.1.2.4 model=3 kv=0.22 kw=0.04445091324200914 pf=0.92 conn=delta status=variable vmaxpu=1.5 vminpu=0.92 daily=RES1_25
New load.bt2780634-1 phases=1 bus=1003240486.1.2.4 model=2 kv=0.22 kw=0.03967751141552511 pf=0.92 conn=delta status=variable vmaxpu=1.5 vminpu=0.92 daily=RES1_25
New load.bt2780634-2 phases=1 bus=1003240486.1.2.4 model=3 kv=0.22 kw=0.03967751141552511 pf=0.92 conn=delta status=variable vmaxpu=1.5 vminpu=0.92 daily=RES1_25
New load.bt2790791-1 phases=1 bus=1003240325.1.2.4 model=2 kv=0.22 kw=0.09855422374429224 pf=0.92 conn=delta status=variable vmaxpu=1.5 vminpu=0.92 daily=RES1_25
New load.bt2790791-2 phases=1 bus=1003240325.1.2.4 model=3 kv=0.22 kw=0.09855422374429224 pf=0.92 conn=delta status=variable vmaxpu=1.5 vminpu=0.92 daily=RES1_25
New load.bt2793232-1 phases=1 bus=1003240514.1.2.4 model=2 kv=0.22 kw=0.04381050228310503 pf=0.92 conn=delta status=variable vmaxpu=1.5 vminpu=0.92 daily=RES1_25
New load.bt2793232-2 phases=1 bus=1003240514.1.2.4 model=3 kv=0.22 kw=0.04381050228310503 pf=0.92 conn=delta status=variable vmaxpu=1.5 vminpu=0.92 daily=RES1_25
New load.bt2802399-1 phases=3 bus=1004145495.1.2.3.4 model=2 kv=0.22 kw=0.026013698630136986 pf=0.92 conn=delta status=variable vmaxpu=1.5 vminpu=0.92 daily=RES1_25
New load.bt2802399-2 phases=3 bus=1004145495.1.2.3.4 model=3 kv=0.22 kw=0.026013698630136986 pf=0.92 conn=delta status=variable vmaxpu=1.5 vminpu=0.92 daily=RES1_25
New load.bt2811752-1 phases=1 bus=1003240353.1.2.4 model=2 kv=0.22 kw=0.05456506849315069 pf=0.92 conn=delta status=variable vmaxpu=1.5 vminpu=0.92 daily=RES1_25
New load.bt2811752-2 phases=1 bus=1003240353.1.2.4 model=3 kv=0.22 kw=0.05456506849315069 pf=0.92 conn=delta status=variable vmaxpu=1.5 vminpu=0.92 daily=RES1_25