New line.SEC887611 phases=1 bus1=161964594.1 bus2=161964603.1 length=0.001 units=km r1=0.001 r0=0.001 x1=0 x0=0 c1=0 c0=0 switch=T !unid=22=Chave Fusivel

New line.SEC284771 phases=3 bus1=158897905.1.2.3 bus2=158897906.1.2.3 length=0.001 units=km r1=0.001 r0=0.001 x1=0 x0=0 c1=0 c0=0 switch=T !unid=19=Chave Faca

New line.SEC201366 phases=3 bus1=158898498.1.2.3 bus2=175543173.1.2.3 length=0.001 units=km r1=0.001 r0=0.001 x1=0 x0=0 c1=0 c0=0 switch=T !unid=19=Chave Faca

New line.SECR59604 phases=1 bus1=182128159.1 bus2=182128160.1 length=0.001 units=km r1=0.001 r0=0.001 x1=0 x0=0 c1=0 c0=0 switch=T !unid=32=Religador

New line.SEC868293 phases=3 bus1=158898287.1.2.3 bus2=158898288.1.2.3 length=0.001 units=km r1=0.001 r0=0.001 x1=0 x0=0 c1=0 c0=0 switch=T !unid=22=Chave Fusivel

New line.SEC874679 phases=3 bus1=158898552.1.2.3 bus2=162028184.1.2.3 length=0.001 units=km r1=0.001 r0=0.001 x1=0 x0=0 c1=0 c0=0 switch=T !unid=22=Chave Fusivel

New line.SEC137190 phases=3 bus1=158898376.1.2.3 bus2=158898384.1.2.3 length=0.001 units=km r1=0.001 r0=0.001 x1=0 x0=0 c1=0 c0=0 switch=T !unid=22=Chave Fusivel

New line.SEC969521 phases=3 bus1=183339152.1.2.3 bus2=183340417.1.2.3 length=0.001 units=km r1=0.001 r0=0.001 x1=0 x0=0 c1=0 c0=0 switch=T !unid=22=Chave Fusivel

New line.SEC315636 phases=3 bus1=158898525.1.2.3 bus2=158899301.1.2.3 length=0.001 units=km r1=0.001 r0=0.001 x1=0 x0=0 c1=0 c0=0 switch=T !unid=22=Chave Fusivel

New line.SEC880760 phases=3 bus1=159154227.1.2.3 bus2=162392770.1.2.3 length=0.001 units=km r1=0.001 r0=0.001 x1=0 x0=0 c1=0 c0=0 switch=T !unid=22=Chave Fusivel

New line.SEC857239 phases=3 bus1=158898252.1.2.3 bus2=158898270.1.2.3 length=0.001 units=km r1=0.001 r0=0.001 x1=0 x0=0 c1=0 c0=0 switch=T !unid=22=Chave Fusivel

New line.SEC874677 phases=3 bus1=158898542.1.2.3 bus2=162026863.1.2.3 length=0.001 units=km r1=0.001 r0=0.001 x1=0 x0=0 c1=0 c0=0 switch=T !unid=22=Chave Fusivel

New line.SEC874674 phases=3 bus1=158898539.1.2.3 bus2=183905996.1.2.3 length=0.001 units=km r1=0.001 r0=0.001 x1=0 x0=0 c1=0 c0=0 switch=T !unid=22=Chave Fusivel

New line.SEC969497 phases=3 bus1=183334531.1.2.3 bus2=183335383.1.2.3 length=0.001 units=km r1=0.001 r0=0.001 x1=0 x0=0 c1=0 c0=0 switch=T !unid=22=Chave Fusivel

New line.SEC969520 phases=3 bus1=183339101.1.2.3 bus2=183361276.1.2.3 length=0.001 units=km r1=0.001 r0=0.001 x1=0 x0=0 c1=0 c0=0 switch=T !unid=22=Chave Fusivel

New line.SEC874678 phases=3 bus1=158898551.1.2.3 bus2=173483946.1.2.3 length=0.001 units=km r1=0.001 r0=0.001 x1=0 x0=0 c1=0 c0=0 switch=T !unid=22=Chave Fusivel

New line.SEC969493 phases=3 bus1=183333891.1.2.3 bus2=183334149.1.2.3 length=0.001 units=km r1=0.001 r0=0.001 x1=0 x0=0 c1=0 c0=0 switch=T !unid=22=Chave Fusivel

New line.SEC863847 phases=3 bus1=158898073.1.2.3 bus2=158898126.1.2.3 length=0.001 units=km r1=0.001 r0=0.001 x1=0 x0=0 c1=0 c0=0 switch=T !unid=22=Chave Fusivel

New line.SEC246796 phases=3 bus1=126410106.1.2.3 bus2=173876064.1.2.3 length=0.001 units=km r1=0.001 r0=0.001 x1=0 x0=0 c1=0 c0=0 switch=T !unid=22=Chave Fusivel

New line.SEC906132 phases=3 bus1=168730965.1.2.3 bus2=168730966.1.2.3 length=0.001 units=km r1=0.001 r0=0.001 x1=0 x0=0 c1=0 c0=0 switch=T !unid=19=Chave Faca

New line.SEC969553 phases=3 bus1=183347155.1.2.3 bus2=183347175.1.2.3 length=0.001 units=km r1=0.001 r0=0.001 x1=0 x0=0 c1=0 c0=0 switch=T !unid=19=Chave Faca

New line.SEC852378 phases=3 bus1=158898011.1.2.3 bus2=183752497.1.2.3 length=0.001 units=km r1=0.001 r0=0.001 x1=0 x0=0 c1=0 c0=0 switch=T !unid=22=Chave Fusivel

New line.SEC868291 phases=3 bus1=158898002.1.2.3 bus2=181701072.1.2.3 length=0.001 units=km r1=0.001 r0=0.001 x1=0 x0=0 c1=0 c0=0 switch=T !unid=22=Chave Fusivel

New line.SEC881024 phases=3 bus1=159277437.1.2.3 bus2=181921079.1.2.3 length=0.001 units=km r1=0.001 r0=0.001 x1=0 x0=0 c1=0 c0=0 switch=T !unid=19=Chave Faca

New line.SECR59602 phases=1 bus1=182127673.2 bus2=182127674.2 length=0.001 units=km r1=0.001 r0=0.001 x1=0 x0=0 c1=0 c0=0 switch=T !unid=32=Religador

New line.SEC963128 phases=1 bus1=181955615.1 bus2=181955616.1 length=0.001 units=km r1=0.001 r0=0.001 x1=0 x0=0 c1=0 c0=0 switch=T !unid=19=Chave Faca

New line.SEC203655 phases=3 bus1=158898515.1.2.3 bus2=158898517.1.2.3 length=0.001 units=km r1=0.001 r0=0.001 x1=0 x0=0 c1=0 c0=0 switch=T !unid=19=Chave Faca

New line.SEC906137 phases=3 bus1=169498352.1.2.3 bus2=171484375.1.2.3 length=0.001 units=km r1=0.001 r0=0.001 x1=0 x0=0 c1=0 c0=0 switch=T !unid=19=Chave Faca

New line.SECR33368 phases=3 bus1=158898101.1.2.3 bus2=158898102.1.2.3 length=0.001 units=km r1=0.001 r0=0.001 x1=0 x0=0 c1=0 c0=0 switch=T !unid=32=Religador

New line.SECR46661 phases=3 bus1=174366391.1.2.3 bus2=179429798.1.2.3 length=0.001 units=km r1=0.001 r0=0.001 x1=0 x0=0 c1=0 c0=0 switch=T !unid=32=Religador

New line.SEC860937 phases=3 bus1=158897944.1.2.3 bus2=158897955.1.2.3 length=0.001 units=km r1=0.001 r0=0.001 x1=0 x0=0 c1=0 c0=0 switch=T !unid=19=Chave Faca

New line.SECR33366 phases=3 bus1=158898026.1.2.3 bus2=161980927.1.2.3 length=0.001 units=km r1=0.001 r0=0.001 x1=0 x0=0 c1=0 c0=0 switch=T !unid=32=Religador

New line.SEC874676 phases=3 bus1=158898541.1.2.3 bus2=173117994.1.2.3 length=0.001 units=km r1=0.001 r0=0.001 x1=0 x0=0 c1=0 c0=0 switch=T !unid=19=Chave Faca

New line.SECR61448 phases=3 bus1=182602682.1.2.3 bus2=183349215.1.2.3 length=0.001 units=km r1=0.001 r0=0.001 x1=0 x0=0 c1=0 c0=0 switch=T !unid=32=Religador

New line.SECR61447 phases=3 bus1=183349237.1.2.3 bus2=180200790.1.2.3 length=0.001 units=km r1=0.001 r0=0.001 x1=0 x0=0 c1=0 c0=0 switch=F !unid=32=Religador

New line.SEC148481 phases=3 bus1=158898454.1.2.3 bus2=158898462.1.2.3 length=0.001 units=km r1=0.001 r0=0.001 x1=0 x0=0 c1=0 c0=0 switch=T !unid=22=Chave Fusivel

New line.SEC201373 phases=3 bus1=158898508.1.2.3 bus2=158899309.1.2.3 length=0.001 units=km r1=0.001 r0=0.001 x1=0 x0=0 c1=0 c0=0 switch=T !unid=22=Chave Fusivel

New line.SEC94203 phases=1 bus1=158898332.3 bus2=158898340.3 length=0.001 units=km r1=0.001 r0=0.001 x1=0 x0=0 c1=0 c0=0 switch=T !unid=22=Chave Fusivel

New line.SEC150875 phases=3 bus1=158898455.1.2.3 bus2=158898464.1.2.3 length=0.001 units=km r1=0.001 r0=0.001 x1=0 x0=0 c1=0 c0=0 switch=T !unid=22=Chave Fusivel

New line.SEC853012 phases=3 bus1=158898412.1.2.3 bus2=158899315.1.2.3 length=0.001 units=km r1=0.001 r0=0.001 x1=0 x0=0 c1=0 c0=0 switch=T !unid=22=Chave Fusivel

New line.SEC149699 phases=3 bus1=158898439.1.2.3 bus2=179442776.1.2.3 length=0.001 units=km r1=0.001 r0=0.001 x1=0 x0=0 c1=0 c0=0 switch=T !unid=22=Chave Fusivel

New line.SEC851339 phases=3 bus1=158898397.1.2.3 bus2=178752288.1.2.3 length=0.001 units=km r1=0.001 r0=0.001 x1=0 x0=0 c1=0 c0=0 switch=T !unid=22=Chave Fusivel

New line.SEC944769 phases=3 bus1=178126211.1.2.3 bus2=179442766.1.2.3 length=0.001 units=km r1=0.001 r0=0.001 x1=0 x0=0 c1=0 c0=0 switch=T !unid=19=Chave Faca

New line.SEC851342 phases=3 bus1=158898368.1.2.3 bus2=158898370.1.2.3 length=0.001 units=km r1=0.001 r0=0.001 x1=0 x0=0 c1=0 c0=0 switch=T !unid=19=Chave Faca

New line.SEC883220 phases=3 bus1=160118594.1.2.3 bus2=160118600.1.2.3 length=0.001 units=km r1=0.001 r0=0.001 x1=0 x0=0 c1=0 c0=0 switch=T !unid=19=Chave Faca

New line.SEC139010 phases=3 bus1=158898392.1.2.3 bus2=158898393.1.2.3 length=0.001 units=km r1=0.001 r0=0.001 x1=0 x0=0 c1=0 c0=0 switch=F !unid=19=Chave Faca

New line.SEC239705 phases=1 bus1=158897930.3 bus2=174001331.3 length=0.001 units=km r1=0.001 r0=0.001 x1=0 x0=0 c1=0 c0=0 switch=T !unid=19=Chave Faca

New line.SEC145149 phases=3 bus1=158897926.1.2.3 bus2=180320292.1.2.3 length=0.001 units=km r1=0.001 r0=0.001 x1=0 x0=0 c1=0 c0=0 switch=T !unid=19=Chave Faca

New line.SEC151729 phases=3 bus1=158898416.1.2.3 bus2=158898417.1.2.3 length=0.001 units=km r1=0.001 r0=0.001 x1=0 x0=0 c1=0 c0=0 switch=T !unid=19=Chave Faca

New line.SEC149405 phases=3 bus1=180320301.1.2.3 bus2=126438960.1.2.3 length=0.001 units=km r1=0.001 r0=0.001 x1=0 x0=0 c1=0 c0=0 switch=F !unid=19=Chave Faca

New line.SEC151400 phases=3 bus1=158898398.1.2.3 bus2=158898399.1.2.3 length=0.001 units=km r1=0.001 r0=0.001 x1=0 x0=0 c1=0 c0=0 switch=T !unid=19=Chave Faca

New line.SECR32330 phases=3 bus1=158898432.1.2.3 bus2=160119078.1.2.3 length=0.001 units=km r1=0.001 r0=0.001 x1=0 x0=0 c1=0 c0=0 switch=T !unid=32=Religador

New line.SEC7634 phases=3 bus1=158897934.1.2.3 bus2=158897937.1.2.3 length=0.001 units=km r1=0.001 r0=0.001 x1=0 x0=0 c1=0 c0=0 switch=T !unid=19=Chave Faca

New line.SEC151722 phases=3 bus1=164854098.1.2.3 bus2=126417666.1.2.3 length=0.001 units=km r1=0.001 r0=0.001 x1=0 x0=0 c1=0 c0=0 switch=F !unid=19=Chave Faca

New line.SEC149671 phases=3 bus1=158898408.1.2.3 bus2=158899317.1.2.3 length=0.001 units=km r1=0.001 r0=0.001 x1=0 x0=0 c1=0 c0=0 switch=T !unid=22=Chave Fusivel

New line.SEC147298 phases=1 bus1=158898298.3 bus2=158898302.3 length=0.001 units=km r1=0.001 r0=0.001 x1=0 x0=0 c1=0 c0=0 switch=T !unid=22=Chave Fusivel

New line.SEC887628 phases=1 bus1=161975838.3 bus2=162025504.3 length=0.001 units=km r1=0.001 r0=0.001 x1=0 x0=0 c1=0 c0=0 switch=T !unid=22=Chave Fusivel

New line.SEC147494 phases=1 bus1=158898176.2 bus2=158898208.2 length=0.001 units=km r1=0.001 r0=0.001 x1=0 x0=0 c1=0 c0=0 switch=T !unid=22=Chave Fusivel

New line.SEC146094 phases=1 bus1=158898225.3 bus2=158898233.3 length=0.001 units=km r1=0.001 r0=0.001 x1=0 x0=0 c1=0 c0=0 switch=T !unid=22=Chave Fusivel

New line.SEC145618 phases=1 bus1=158897998.3 bus2=158898290.3 length=0.001 units=km r1=0.001 r0=0.001 x1=0 x0=0 c1=0 c0=0 switch=T !unid=22=Chave Fusivel

New line.SEC146073 phases=3 bus1=158897995.1.2.3 bus2=158898293.1.2.3 length=0.001 units=km r1=0.001 r0=0.001 x1=0 x0=0 c1=0 c0=0 switch=T !unid=22=Chave Fusivel

New line.SEC148572 phases=1 bus1=158898159.3 bus2=168638005.3 length=0.001 units=km r1=0.001 r0=0.001 x1=0 x0=0 c1=0 c0=0 switch=T !unid=22=Chave Fusivel

New line.SEC860912 phases=3 bus1=158898092.1.2.3 bus2=158898121.1.2.3 length=0.001 units=km r1=0.001 r0=0.001 x1=0 x0=0 c1=0 c0=0 switch=T !unid=22=Chave Fusivel

New line.SEC152541 phases=1 bus1=126410309.1 bus2=126410351.1 length=0.001 units=km r1=0.001 r0=0.001 x1=0 x0=0 c1=0 c0=0 switch=T !unid=22=Chave Fusivel

New line.SEC146787 phases=1 bus1=158898220.3 bus2=158898236.3 length=0.001 units=km r1=0.001 r0=0.001 x1=0 x0=0 c1=0 c0=0 switch=T !unid=22=Chave Fusivel

New line.SEC147746 phases=1 bus1=158898170.2 bus2=158898210.2 length=0.001 units=km r1=0.001 r0=0.001 x1=0 x0=0 c1=0 c0=0 switch=T !unid=22=Chave Fusivel

New line.SEC241686 phases=3 bus1=158898473.1.2.3 bus2=168566861.1.2.3 length=0.001 units=km r1=0.001 r0=0.001 x1=0 x0=0 c1=0 c0=0 switch=T !unid=22=Chave Fusivel

New line.SEC153143 phases=1 bus1=126410302.1 bus2=126410330.1 length=0.001 units=km r1=0.001 r0=0.001 x1=0 x0=0 c1=0 c0=0 switch=T !unid=22=Chave Fusivel

New line.SEC138800 phases=3 bus1=126421607.1.2.3 bus2=156254116.1.2.3 length=0.001 units=km r1=0.001 r0=0.001 x1=0 x0=0 c1=0 c0=0 switch=T !unid=22=Chave Fusivel

New line.SEC146493 phases=3 bus1=158897973.1.2.3 bus2=158898295.1.2.3 length=0.001 units=km r1=0.001 r0=0.001 x1=0 x0=0 c1=0 c0=0 switch=T !unid=22=Chave Fusivel

New line.SEC146248 phases=1 bus1=158897942.3 bus2=158898312.3 length=0.001 units=km r1=0.001 r0=0.001 x1=0 x0=0 c1=0 c0=0 switch=T !unid=22=Chave Fusivel

New line.SEC186211 phases=1 bus1=158898182.2 bus2=158898196.2 length=0.001 units=km r1=0.001 r0=0.001 x1=0 x0=0 c1=0 c0=0 switch=T !unid=22=Chave Fusivel

New line.SEC153423 phases=3 bus1=126410162.1.2.3 bus2=126410169.1.2.3 length=0.001 units=km r1=0.001 r0=0.001 x1=0 x0=0 c1=0 c0=0 switch=T !unid=22=Chave Fusivel

New line.SEC844773 phases=1 bus1=158898157.3 bus2=172484757.3 length=0.001 units=km r1=0.001 r0=0.001 x1=0 x0=0 c1=0 c0=0 switch=T !unid=22=Chave Fusivel

New line.SEC215261 phases=3 bus1=158898513.1.2.3 bus2=165116097.1.2.3 length=0.001 units=km r1=0.001 r0=0.001 x1=0 x0=0 c1=0 c0=0 switch=T !unid=22=Chave Fusivel

New line.SEC71439 phases=3 bus1=126421691.1.2.3 bus2=177831959.1.2.3 length=0.001 units=km r1=0.001 r0=0.001 x1=0 x0=0 c1=0 c0=0 switch=T !unid=22=Chave Fusivel

New line.SEC241693 phases=3 bus1=126421824.1.2.3 bus2=169486379.1.2.3 length=0.001 units=km r1=0.001 r0=0.001 x1=0 x0=0 c1=0 c0=0 switch=T !unid=22=Chave Fusivel

New line.SEC146752 phases=3 bus1=158897927.1.2.3 bus2=158897928.1.2.3 length=0.001 units=km r1=0.001 r0=0.001 x1=0 x0=0 c1=0 c0=0 switch=T !unid=19=Chave Faca

New line.SECR32331 phases=3 bus1=160119087.1.2.3 bus2=126417953.1.2.3 length=0.001 units=km r1=0.001 r0=0.001 x1=0 x0=0 c1=0 c0=0 switch=F !unid=32=Religador

New line.SEC150854 phases=3 bus1=165614083.1.2.3 bus2=126417057.1.2.3 length=0.001 units=km r1=0.001 r0=0.001 x1=0 x0=0 c1=0 c0=0 switch=F !unid=19=Chave Faca

New line.SEC851332 phases=3 bus1=158898410.1.2.3 bus2=158898411.1.2.3 length=0.001 units=km r1=0.001 r0=0.001 x1=0 x0=0 c1=0 c0=0 switch=T !unid=19=Chave Faca

New line.SEC146521 phases=1 bus1=158898255.2 bus2=158898260.2 length=0.001 units=km r1=0.001 r0=0.001 x1=0 x0=0 c1=0 c0=0 switch=T !unid=19=Chave Faca

New line.SEC863979 phases=1 bus1=158898254.2 bus2=165390199.2 length=0.001 units=km r1=0.001 r0=0.001 x1=0 x0=0 c1=0 c0=0 switch=T !unid=19=Chave Faca

New line.SEC959852 phases=1 bus1=181277617.2 bus2=181277660.2 length=0.001 units=km r1=0.001 r0=0.001 x1=0 x0=0 c1=0 c0=0 switch=T !unid=22=Chave Fusivel

New line.SEC133858 phases=3 bus1=126418345.1.2.3 bus2=183812625.1.2.3 length=0.001 units=km r1=0.001 r0=0.001 x1=0 x0=0 c1=0 c0=0 switch=T !unid=19=Chave Faca

New line.SEC151715 phases=3 bus1=164854099.1.2.3 bus2=158898427.1.2.3 length=0.001 units=km r1=0.001 r0=0.001 x1=0 x0=0 c1=0 c0=0 switch=T !unid=19=Chave Faca

New line.SEC922234 phases=3 bus1=173876066.1.2.3 bus2=173876072.1.2.3 length=0.001 units=km r1=0.001 r0=0.001 x1=0 x0=0 c1=0 c0=0 switch=T !unid=22=Chave Fusivel

New line.SEC33660 phases=3 bus1=158898246.1.2.3 bus2=174847175.1.2.3 length=0.001 units=km r1=0.001 r0=0.001 x1=0 x0=0 c1=0 c0=0 switch=T !unid=19=Chave Faca

New line.SEC11526 phases=3 bus1=158897988.1.2.3 bus2=175185178.1.2.3 length=0.001 units=km r1=0.001 r0=0.001 x1=0 x0=0 c1=0 c0=0 switch=T !unid=19=Chave Faca

New line.SEC242638 phases=3 bus1=158898020.1.2.3 bus2=158898024.1.2.3 length=0.001 units=km r1=0.001 r0=0.001 x1=0 x0=0 c1=0 c0=0 switch=T !unid=19=Chave Faca

New line.SEC153416 phases=3 bus1=158898488.1.2.3 bus2=158898490.1.2.3 length=0.001 units=km r1=0.001 r0=0.001 x1=0 x0=0 c1=0 c0=0 switch=T !unid=19=Chave Faca

New line.SEC29810 phases=3 bus1=158897923.1.2.3 bus2=3333341.1.2.3 length=0.001 units=km r1=0.001 r0=0.001 x1=0 x0=0 c1=0 c0=0 switch=F !unid=19=Chave Faca

New line.SEC148579 phases=1 bus1=158898156.2 bus2=182534721.2 length=0.001 units=km r1=0.001 r0=0.001 x1=0 x0=0 c1=0 c0=0 switch=T !unid=19=Chave Faca

New line.SEC148593 phases=3 bus1=158897970.1.2.3 bus2=158897971.1.2.3 length=0.001 units=km r1=0.001 r0=0.001 x1=0 x0=0 c1=0 c0=0 switch=T !unid=19=Chave Faca

New line.SEC4050 phases=1 bus1=126409987.2 bus2=182112100.2 length=0.001 units=km r1=0.001 r0=0.001 x1=0 x0=0 c1=0 c0=0 switch=T !unid=22=Chave Fusivel

New line.SEC456945 phases=3 bus1=158898090.1.2.3 bus2=181512183.1.2.3 length=0.001 units=km r1=0.001 r0=0.001 x1=0 x0=0 c1=0 c0=0 switch=T !unid=19=Chave Faca

New line.SEC44244 phases=3 bus1=168730969.1.2.3 bus2=158897922.1.2.3 length=0.001 units=km r1=0.001 r0=0.001 x1=0 x0=0 c1=0 c0=0 switch=T !unid=19=Chave Faca

New line.SEC929958 phases=1 bus1=175185179.1 bus2=181955611.1 length=0.001 units=km r1=0.001 r0=0.001 x1=0 x0=0 c1=0 c0=0 switch=T !unid=22=Chave Fusivel

New line.SEC115252 phases=3 bus1=183812634.1.2.3 bus2=126421593.1.2.3 length=0.001 units=km r1=0.001 r0=0.001 x1=0 x0=0 c1=0 c0=0 switch=F !unid=19=Chave Faca

New line.SEC43194 phases=1 bus1=126410477.1 bus2=167112128.1 length=0.001 units=km r1=0.001 r0=0.001 x1=0 x0=0 c1=0 c0=0 switch=T !unid=22=Chave Fusivel

New line.SEC153689 phases=3 bus1=180197674.1.2.3 bus2=126409938.1.2.3 length=0.001 units=km r1=0.001 r0=0.001 x1=0 x0=0 c1=0 c0=0 switch=T !unid=19=Chave Faca

New line.SECR2335 phases=3 bus1=158897932.1.2.3 bus2=158897933.1.2.3 length=0.001 units=km r1=0.001 r0=0.001 x1=0 x0=0 c1=0 c0=0 switch=T !unid=32=Religador

New line.SEC242645 phases=3 bus1=158898012.1.2.3 bus2=158898013.1.2.3 length=0.001 units=km r1=0.001 r0=0.001 x1=0 x0=0 c1=0 c0=0 switch=T !unid=19=Chave Faca

New line.SEC857238 phases=1 bus1=158898251.2 bus2=173703813.2 length=0.001 units=km r1=0.001 r0=0.001 x1=0 x0=0 c1=0 c0=0 switch=T !unid=22=Chave Fusivel

New line.SEC146801 phases=3 bus1=158898051.1.2.3 bus2=158898054.1.2.3 length=0.001 units=km r1=0.001 r0=0.001 x1=0 x0=0 c1=0 c0=0 switch=T !unid=19=Chave Faca

New line.SEC152849 phases=1 bus1=126409931.1 bus2=182608723.1 length=0.001 units=km r1=0.001 r0=0.001 x1=0 x0=0 c1=0 c0=0 switch=T !unid=19=Chave Faca

New line.SEC42417 phases=1 bus1=158898086.2 bus2=158898124.2 length=0.001 units=km r1=0.001 r0=0.001 x1=0 x0=0 c1=0 c0=0 switch=T !unid=22=Chave Fusivel

New line.SEC145611 phases=3 bus1=158897996.1.2.3 bus2=182313813.1.2.3 length=0.001 units=km r1=0.001 r0=0.001 x1=0 x0=0 c1=0 c0=0 switch=T !unid=19=Chave Faca

New line.SEC258668 phases=3 bus1=158897919.1.2.3 bus2=158898354.1.2.3 length=0.001 units=km r1=0.001 r0=0.001 x1=0 x0=0 c1=0 c0=0 switch=T !unid=19=Chave Faca

New line.SEC147718 phases=3 bus1=158898022.1.2.3 bus2=178639844.1.2.3 length=0.001 units=km r1=0.001 r0=0.001 x1=0 x0=0 c1=0 c0=0 switch=T !unid=19=Chave Faca

New line.SEC43264 phases=1 bus1=126410274.1 bus2=148731435.1 length=0.001 units=km r1=0.001 r0=0.001 x1=0 x0=0 c1=0 c0=0 switch=T !unid=19=Chave Faca

New line.SEC882669 phases=3 bus1=159901434.1.2.3 bus2=159901440.1.2.3 length=0.001 units=km r1=0.001 r0=0.001 x1=0 x0=0 c1=0 c0=0 switch=T !unid=22=Chave Fusivel

New line.SEC32715 phases=1 bus1=158898186.2 bus2=182534818.2 length=0.001 units=km r1=0.001 r0=0.001 x1=0 x0=0 c1=0 c0=0 switch=T !unid=22=Chave Fusivel

New line.SEC145373 phases=3 bus1=124294461.1.2.3 bus2=167995235.1.2.3 length=0.001 units=km r1=0.001 r0=0.001 x1=0 x0=0 c1=0 c0=0 switch=T !unid=19=Chave Faca

New line.SEC145156 phases=3 bus1=158897961.1.2.3 bus2=158897962.1.2.3 length=0.001 units=km r1=0.001 r0=0.001 x1=0 x0=0 c1=0 c0=0 switch=T !unid=19=Chave Faca

New line.SEC851341 phases=3 bus1=158898369.1.2.3 bus2=158898395.1.2.3 length=0.001 units=km r1=0.001 r0=0.001 x1=0 x0=0 c1=0 c0=0 switch=T !unid=19=Chave Faca

New line.SEC39498 phases=1 bus1=158898132.2 bus2=167112579.2 length=0.001 units=km r1=0.001 r0=0.001 x1=0 x0=0 c1=0 c0=0 switch=T !unid=19=Chave Faca

New line.SECR44218 phases=1 bus1=174001324.3 bus2=174001343.3 length=0.001 units=km r1=0.001 r0=0.001 x1=0 x0=0 c1=0 c0=0 switch=T !unid=32=Religador

New line.SEC153136 phases=1 bus1=126410001.2 bus2=126410183.2 length=0.001 units=km r1=0.001 r0=0.001 x1=0 x0=0 c1=0 c0=0 switch=T !unid=22=Chave Fusivel

New line.SEC148264 phases=3 bus1=158897972.1.2.3 bus2=158897975.1.2.3 length=0.001 units=km r1=0.001 r0=0.001 x1=0 x0=0 c1=0 c0=0 switch=T !unid=22=Chave Fusivel

New line.SEC145191 phases=1 bus1=158898163.1 bus2=158898240.1 length=0.001 units=km r1=0.001 r0=0.001 x1=0 x0=0 c1=0 c0=0 switch=T !unid=22=Chave Fusivel

New line.SEC882406 phases=3 bus1=159806235.1.2.3 bus2=159806239.1.2.3 length=0.001 units=km r1=0.001 r0=0.001 x1=0 x0=0 c1=0 c0=0 switch=T !unid=22=Chave Fusivel

New line.SEC851354 phases=3 bus1=158897912.1.2.3 bus2=158899323.1.2.3 length=0.001 units=km r1=0.001 r0=0.001 x1=0 x0=0 c1=0 c0=0 switch=T !unid=22=Chave Fusivel

New line.SEC150588 phases=1 bus1=126410281.1 bus2=126410421.1 length=0.001 units=km r1=0.001 r0=0.001 x1=0 x0=0 c1=0 c0=0 switch=T !unid=22=Chave Fusivel

New line.SEC137078 phases=3 bus1=158898500.1.2.3 bus2=158898502.1.2.3 length=0.001 units=km r1=0.001 r0=0.001 x1=0 x0=0 c1=0 c0=0 switch=T !unid=22=Chave Fusivel

New line.SEC56277 phases=1 bus1=126410288.1 bus2=126410407.1 length=0.001 units=km r1=0.001 r0=0.001 x1=0 x0=0 c1=0 c0=0 switch=T !unid=22=Chave Fusivel

New line.SEC443078 phases=3 bus1=166897541.1.2.3 bus2=166897543.1.2.3 length=0.001 units=km r1=0.001 r0=0.001 x1=0 x0=0 c1=0 c0=0 switch=T !unid=22=Chave Fusivel

New line.SEC143280 phases=3 bus1=158898375.1.2.3 bus2=158898377.1.2.3 length=0.001 units=km r1=0.001 r0=0.001 x1=0 x0=0 c1=0 c0=0 switch=T !unid=22=Chave Fusivel

New line.SEC354906 phases=1 bus1=158898180.2 bus2=158898202.2 length=0.001 units=km r1=0.001 r0=0.001 x1=0 x0=0 c1=0 c0=0 switch=T !unid=22=Chave Fusivel

New line.SEC254265 phases=3 bus1=158898349.1.2.3 bus2=158898352.1.2.3 length=0.001 units=km r1=0.001 r0=0.001 x1=0 x0=0 c1=0 c0=0 switch=T !unid=22=Chave Fusivel

New line.SEC204873 phases=3 bus1=126421635.1.2.3 bus2=178885775.1.2.3 length=0.001 units=km r1=0.001 r0=0.001 x1=0 x0=0 c1=0 c0=0 switch=T !unid=22=Chave Fusivel

New line.SEC147753 phases=1 bus1=158898316.3 bus2=158898322.3 length=0.001 units=km r1=0.001 r0=0.001 x1=0 x0=0 c1=0 c0=0 switch=T !unid=22=Chave Fusivel

New line.SEC916471 phases=3 bus1=172192135.1.2.3 bus2=180599128.1.2.3 length=0.001 units=km r1=0.001 r0=0.001 x1=0 x0=0 c1=0 c0=0 switch=T !unid=22=Chave Fusivel

New line.SEC215401 phases=3 bus1=158898512.1.2.3 bus2=167002132.1.2.3 length=0.001 units=km r1=0.001 r0=0.001 x1=0 x0=0 c1=0 c0=0 switch=T !unid=22=Chave Fusivel

New line.SEC856856 phases=3 bus1=151888387.1.2.3 bus2=183812342.1.2.3 length=0.001 units=km r1=0.001 r0=0.001 x1=0 x0=0 c1=0 c0=0 switch=T !unid=22=Chave Fusivel

New line.SEC869187 phases=1 bus1=158898245.1 bus2=158898247.1 length=0.001 units=km r1=0.001 r0=0.001 x1=0 x0=0 c1=0 c0=0 switch=T !unid=22=Chave Fusivel

New line.SEC880282 phases=3 bus1=158979494.1.2.3 bus2=166935492.1.2.3 length=0.001 units=km r1=0.001 r0=0.001 x1=0 x0=0 c1=0 c0=0 switch=T !unid=22=Chave Fusivel

New line.SEC885125 phases=1 bus1=161027861.3 bus2=161069490.3 length=0.001 units=km r1=0.001 r0=0.001 x1=0 x0=0 c1=0 c0=0 switch=T !unid=22=Chave Fusivel

New line.SEC242624 phases=3 bus1=158898127.1.2.3 bus2=158898128.1.2.3 length=0.001 units=km r1=0.001 r0=0.001 x1=0 x0=0 c1=0 c0=0 switch=T !unid=22=Chave Fusivel

New line.SEC247888 phases=3 bus1=156254126.1.2.3 bus2=126422055.1.2.3 length=0.001 units=km r1=0.001 r0=0.001 x1=0 x0=0 c1=0 c0=0 switch=F !unid=19=Chave Faca

New line.SEC146759 phases=3 bus1=158897992.1.2.3 bus2=158897994.1.2.3 length=0.001 units=km r1=0.001 r0=0.001 x1=0 x0=0 c1=0 c0=0 switch=T !unid=19=Chave Faca

New line.SEC144827 phases=3 bus1=158898008.1.2.3 bus2=169526963.1.2.3 length=0.001 units=km r1=0.001 r0=0.001 x1=0 x0=0 c1=0 c0=0 switch=T !unid=19=Chave Faca

New line.SEC145163 phases=1 bus1=158898033.2 bus2=181923770.2 length=0.001 units=km r1=0.001 r0=0.001 x1=0 x0=0 c1=0 c0=0 switch=T !unid=22=Chave Fusivel

New line.SEC143840 phases=3 bus1=158897974.1.2.3 bus2=159901425.1.2.3 length=0.001 units=km r1=0.001 r0=0.001 x1=0 x0=0 c1=0 c0=0 switch=T !unid=19=Chave Faca

New line.SEC169313 phases=3 bus1=158898382.1.2.3 bus2=158898383.1.2.3 length=0.001 units=km r1=0.001 r0=0.001 x1=0 x0=0 c1=0 c0=0 switch=F !unid=19=Chave Faca

New line.SECR32459 phases=3 bus1=158897914.1.2.3 bus2=183347710.1.2.3 length=0.001 units=km r1=0.001 r0=0.001 x1=0 x0=0 c1=0 c0=0 switch=T !unid=32=Religador

New line.SEC204754 phases=3 bus1=158898046.1.2.3 bus2=158898065.1.2.3 length=0.001 units=km r1=0.001 r0=0.001 x1=0 x0=0 c1=0 c0=0 switch=T !unid=19=Chave Faca

New line.SEC971523 phases=3 bus1=183811922.1.2.3 bus2=183812465.1.2.3 length=0.001 units=km r1=0.001 r0=0.001 x1=0 x0=0 c1=0 c0=0 switch=T !unid=19=Chave Faca

New line.SEC97710 phases=3 bus1=158898479.1.2.3 bus2=158898481.1.2.3 length=0.001 units=km r1=0.001 r0=0.001 x1=0 x0=0 c1=0 c0=0 switch=T !unid=19=Chave Faca

New line.SEC363201 phases=3 bus1=126410008.1.2.3 bus2=126410099.1.2.3 length=0.001 units=km r1=0.001 r0=0.001 x1=0 x0=0 c1=0 c0=0 switch=T !unid=19=Chave Faca

New line.SEC146794 phases=1 bus1=158898030.3 bus2=158898146.3 length=0.001 units=km r1=0.001 r0=0.001 x1=0 x0=0 c1=0 c0=0 switch=T !unid=22=Chave Fusivel

New line.SEC39617 phases=3 bus1=158898077.1.2.3 bus2=158898083.1.2.3 length=0.001 units=km r1=0.001 r0=0.001 x1=0 x0=0 c1=0 c0=0 switch=T !unid=19=Chave Faca

New line.SEC889379 phases=1 bus1=162791156.2 bus2=162791159.2 length=0.001 units=km r1=0.001 r0=0.001 x1=0 x0=0 c1=0 c0=0 switch=T !unid=19=Chave Faca

New line.SEC206728 phases=3 bus1=158898527.1.2.3 bus2=159492219.1.2.3 length=0.001 units=km r1=0.001 r0=0.001 x1=0 x0=0 c1=0 c0=0 switch=T !unid=19=Chave Faca

New line.SEC147186 phases=3 bus1=158898308.1.2.3 bus2=158898309.1.2.3 length=0.001 units=km r1=0.001 r0=0.001 x1=0 x0=0 c1=0 c0=0 switch=T !unid=19=Chave Faca

New line.SEC148530 phases=3 bus1=158898160.1.2.3 bus2=158898243.1.2.3 length=0.001 units=km r1=0.001 r0=0.001 x1=0 x0=0 c1=0 c0=0 switch=T !unid=22=Chave Fusivel

New line.SEC871699 phases=1 bus1=156228304.3 bus2=156228310.3 length=0.001 units=km r1=0.001 r0=0.001 x1=0 x0=0 c1=0 c0=0 switch=T !unid=19=Chave Faca

New line.SECR4589 phases=3 bus1=158898306.1.2.3 bus2=158898307.1.2.3 length=0.001 units=km r1=0.001 r0=0.001 x1=0 x0=0 c1=0 c0=0 switch=T !unid=32=Religador

New line.SEC62136 phases=3 bus1=158898367.1.2.3 bus2=150857390.1.2.3 length=0.001 units=km r1=0.001 r0=0.001 x1=0 x0=0 c1=0 c0=0 switch=F !unid=19=Chave Faca

New line.SEC239313 phases=3 bus1=158897908.1.2.3 bus2=158897909.1.2.3 length=0.001 units=km r1=0.001 r0=0.001 x1=0 x0=0 c1=0 c0=0 switch=T !unid=19=Chave Faca

New line.SEC148586 phases=1 bus1=158898050.2 bus2=162791153.2 length=0.001 units=km r1=0.001 r0=0.001 x1=0 x0=0 c1=0 c0=0 switch=T !unid=22=Chave Fusivel

New line.SEC242750 phases=1 bus1=158898071.3 bus2=158898079.3 length=0.001 units=km r1=0.001 r0=0.001 x1=0 x0=0 c1=0 c0=0 switch=T !unid=22=Chave Fusivel

New line.SEC260397 phases=3 bus1=158898355.1.2.3 bus2=170388856.1.2.3 length=0.001 units=km r1=0.001 r0=0.001 x1=0 x0=0 c1=0 c0=0 switch=T !unid=19=Chave Faca

New line.SECR32002 phases=3 bus1=158898374.1.2.3 bus2=18717185.1.2.3 length=0.001 units=km r1=0.001 r0=0.001 x1=0 x0=0 c1=0 c0=0 switch=F !unid=32=Religador

New line.SEC46778 phases=3 bus1=158898089.1.2.3 bus2=152278412.1.2.3 length=0.001 units=km r1=0.001 r0=0.001 x1=0 x0=0 c1=0 c0=0 switch=F !unid=19=Chave Faca

New line.SEC145926 phases=3 bus1=158898009.1.2.3 bus2=5526644.1.2.3 length=0.001 units=km r1=0.001 r0=0.001 x1=0 x0=0 c1=0 c0=0 switch=T !unid=19=Chave Faca

New line.SEC249218 phases=1 bus1=158898095.3 bus2=158898119.3 length=0.001 units=km r1=0.001 r0=0.001 x1=0 x0=0 c1=0 c0=0 switch=T !unid=22=Chave Fusivel

New line.SEC860935 phases=3 bus1=158898017.1.2.3 bus2=166103079.1.2.3 length=0.001 units=km r1=0.001 r0=0.001 x1=0 x0=0 c1=0 c0=0 switch=T !unid=19=Chave Faca

New line.SEC8460 phases=3 bus1=158898005.1.2.3 bus2=158898006.1.2.3 length=0.001 units=km r1=0.001 r0=0.001 x1=0 x0=0 c1=0 c0=0 switch=T !unid=19=Chave Faca

New line.SEC282664 phases=1 bus1=126410232.2 bus2=160549544.2 length=0.001 units=km r1=0.001 r0=0.001 x1=0 x0=0 c1=0 c0=0 switch=T !unid=19=Chave Faca

New line.SEC887519 phases=1 bus1=161927360.3 bus2=161972850.3 length=0.001 units=km r1=0.001 r0=0.001 x1=0 x0=0 c1=0 c0=0 switch=T !unid=22=Chave Fusivel

New line.SEC153696 phases=1 bus1=126409994.3 bus2=156228301.3 length=0.001 units=km r1=0.001 r0=0.001 x1=0 x0=0 c1=0 c0=0 switch=T !unid=22=Chave Fusivel

New line.SEC852333 phases=3 bus1=158898014.1.2.3 bus2=181086801.1.2.3 length=0.001 units=km r1=0.001 r0=0.001 x1=0 x0=0 c1=0 c0=0 switch=T !unid=22=Chave Fusivel

New line.SEC147074 phases=1 bus1=158898135.2 bus2=158898138.2 length=0.001 units=km r1=0.001 r0=0.001 x1=0 x0=0 c1=0 c0=0 switch=T !unid=19=Chave Faca

New line.SECR37775 phases=3 bus1=164341855.1.2.3 bus2=164341840.1.2.3 length=0.001 units=km r1=0.001 r0=0.001 x1=0 x0=0 c1=0 c0=0 switch=F !unid=32=Religador

New line.SEC860931 phases=3 bus1=158898096.1.2.3 bus2=158898099.1.2.3 length=0.001 units=km r1=0.001 r0=0.001 x1=0 x0=0 c1=0 c0=0 switch=T !unid=19=Chave Faca

New line.SEC47744 phases=3 bus1=177831970.1.2.3 bus2=126421859.1.2.3 length=0.001 units=km r1=0.001 r0=0.001 x1=0 x0=0 c1=0 c0=0 switch=F !unid=19=Chave Faca

New line.SEC928149 phases=3 bus1=174825946.1.2.3 bus2=175543184.1.2.3 length=0.001 units=km r1=0.001 r0=0.001 x1=0 x0=0 c1=0 c0=0 switch=T !unid=19=Chave Faca

New line.SEC198160 phases=3 bus1=158898044.1.2.3 bus2=166897538.1.2.3 length=0.001 units=km r1=0.001 r0=0.001 x1=0 x0=0 c1=0 c0=0 switch=T !unid=22=Chave Fusivel

New line.SEC292100 phases=1 bus1=158898098.3 bus2=174994659.3 length=0.001 units=km r1=0.001 r0=0.001 x1=0 x0=0 c1=0 c0=0 switch=T !unid=22=Chave Fusivel

New line.SEC874675 phases=3 bus1=159492231.1.2.3 bus2=158898537.1.2.3 length=0.001 units=km r1=0.001 r0=0.001 x1=0 x0=0 c1=0 c0=0 switch=T !unid=19=Chave Faca

New line.SEC851352 phases=3 bus1=158897913.1.2.3 bus2=158898365.1.2.3 length=0.001 units=km r1=0.001 r0=0.001 x1=0 x0=0 c1=0 c0=0 switch=T !unid=19=Chave Faca

New line.SEC0336099-6A phases=3 bus1=174366391.1.2.3 bus2=1794297980336099-6A.1.2.3 length=0.001 units=km r1=0.001 r0=0.001 x1=0 x0=0 c1=0 c0=0 switch=F !unid=19=Chave Faca

New line.SEC188930-6A phases=3 bus1=158897932.1.2.3 bus2=158897933188930-6A.1.2.3 length=0.001 units=km r1=0.001 r0=0.001 x1=0 x0=0 c1=0 c0=0 switch=F !unid=19=Chave Faca

New line.SEC0369901-6A phases=3 bus1=183349237.1.2.3 bus2=1802007900369901-6A.1.2.3 length=0.001 units=km r1=0.001 r0=0.001 x1=0 x0=0 c1=0 c0=0 switch=F !unid=19=Chave Faca

New line.SEC0369905-6A phases=3 bus1=182602682.1.2.3 bus2=1833492150369905-6A.1.2.3 length=0.001 units=km r1=0.001 r0=0.001 x1=0 x0=0 c1=0 c0=0 switch=F !unid=19=Chave Faca
