New load.pip333141-1 phases=1 bus=5009193615.1.2.4 model=2 kv=0.24 kw=0.010165804794520547 pf=0.92 conn=delta status=variable vmaxpu=1.5 vminpu=0.92 daily=IP
New load.pip333141-2 phases=1 bus=5009193615.1.2.4 model=3 kv=0.24 kw=0.010165804794520547 pf=0.92 conn=delta status=variable vmaxpu=1.5 vminpu=0.92 daily=IP

New load.pip389641-1 phases=1 bus=5009193701.1.2.4 model=2 kv=0.24 kw=0.01123835616438356 pf=0.92 conn=delta status=variable vmaxpu=1.5 vminpu=0.92 daily=IP
New load.pip389641-2 phases=1 bus=5009193701.1.2.4 model=3 kv=0.24 kw=0.01123835616438356 pf=0.92 conn=delta status=variable vmaxpu=1.5 vminpu=0.92 daily=IP

New load.pip401169-1 phases=1 bus=5009193612.1.2.4 model=2 kv=0.24 kw=0.010165804794520547 pf=0.92 conn=delta status=variable vmaxpu=1.5 vminpu=0.92 daily=IP
New load.pip401169-2 phases=1 bus=5009193612.1.2.4 model=3 kv=0.24 kw=0.010165804794520547 pf=0.92 conn=delta status=variable vmaxpu=1.5 vminpu=0.92 daily=IP

New load.pip406612-1 phases=1 bus=5009193613.1.2.4 model=2 kv=0.24 kw=0.010165804794520547 pf=0.92 conn=delta status=variable vmaxpu=1.5 vminpu=0.92 daily=IP
New load.pip406612-2 phases=1 bus=5009193613.1.2.4 model=3 kv=0.24 kw=0.010165804794520547 pf=0.92 conn=delta status=variable vmaxpu=1.5 vminpu=0.92 daily=IP

New load.pip418796-1 phases=1 bus=5009193633.1.2.4 model=2 kv=0.24 kw=0.01123835616438356 pf=0.92 conn=delta status=variable vmaxpu=1.5 vminpu=0.92 daily=IP
New load.pip418796-2 phases=1 bus=5009193633.1.2.4 model=3 kv=0.24 kw=0.01123835616438356 pf=0.92 conn=delta status=variable vmaxpu=1.5 vminpu=0.92 daily=IP

New load.pip425064-1 phases=1 bus=5009193620.1.2.4 model=2 kv=0.24 kw=0.01123835616438356 pf=0.92 conn=delta status=variable vmaxpu=1.5 vminpu=0.92 daily=IP
New load.pip425064-2 phases=1 bus=5009193620.1.2.4 model=3 kv=0.24 kw=0.01123835616438356 pf=0.92 conn=delta status=variable vmaxpu=1.5 vminpu=0.92 daily=IP

New load.pip430911-1 phases=1 bus=5009193646.1.2.4 model=2 kv=0.24 kw=0.01123835616438356 pf=0.92 conn=delta status=variable vmaxpu=1.5 vminpu=0.92 daily=IP
New load.pip430911-2 phases=1 bus=5009193646.1.2.4 model=3 kv=0.24 kw=0.01123835616438356 pf=0.92 conn=delta status=variable vmaxpu=1.5 vminpu=0.92 daily=IP

New load.pip431633-1 phases=1 bus=5009193644.1.2.4 model=2 kv=0.24 kw=0.01123835616438356 pf=0.92 conn=delta status=variable vmaxpu=1.5 vminpu=0.92 daily=IP
New load.pip431633-2 phases=1 bus=5009193644.1.2.4 model=3 kv=0.24 kw=0.01123835616438356 pf=0.92 conn=delta status=variable vmaxpu=1.5 vminpu=0.92 daily=IP

New load.pip432332-1 phases=1 bus=5009193691.1.2.4 model=2 kv=0.24 kw=0.01123835616438356 pf=0.92 conn=delta status=variable vmaxpu=1.5 vminpu=0.92 daily=IP
New load.pip432332-2 phases=1 bus=5009193691.1.2.4 model=3 kv=0.24 kw=0.01123835616438356 pf=0.92 conn=delta status=variable vmaxpu=1.5 vminpu=0.92 daily=IP

New load.pip467384-1 phases=1 bus=5009193628.1.2.4 model=2 kv=0.24 kw=0.01123835616438356 pf=0.92 conn=delta status=variable vmaxpu=1.5 vminpu=0.92 daily=IP
New load.pip467384-2 phases=1 bus=5009193628.1.2.4 model=3 kv=0.24 kw=0.01123835616438356 pf=0.92 conn=delta status=variable vmaxpu=1.5 vminpu=0.92 daily=IP

New load.pip476959-1 phases=1 bus=5009193627.1.2.4 model=2 kv=0.24 kw=0.01123835616438356 pf=0.92 conn=delta status=variable vmaxpu=1.5 vminpu=0.92 daily=IP
New load.pip476959-2 phases=1 bus=5009193627.1.2.4 model=3 kv=0.24 kw=0.01123835616438356 pf=0.92 conn=delta status=variable vmaxpu=1.5 vminpu=0.92 daily=IP

New load.pip490291-1 phases=1 bus=5009193671.1.2.4 model=2 kv=0.24 kw=0.01123835616438356 pf=0.92 conn=delta status=variable vmaxpu=1.5 vminpu=0.92 daily=IP
New load.pip490291-2 phases=1 bus=5009193671.1.2.4 model=3 kv=0.24 kw=0.01123835616438356 pf=0.92 conn=delta status=variable vmaxpu=1.5 vminpu=0.92 daily=IP

New load.pip508288-1 phases=1 bus=5009193617.1.2.4 model=2 kv=0.24 kw=0.01123835616438356 pf=0.92 conn=delta status=variable vmaxpu=1.5 vminpu=0.92 daily=IP
New load.pip508288-2 phases=1 bus=5009193617.1.2.4 model=3 kv=0.24 kw=0.01123835616438356 pf=0.92 conn=delta status=variable vmaxpu=1.5 vminpu=0.92 daily=IP

New load.pip527334-1 phases=1 bus=5009193607.1.2.4 model=2 kv=0.24 kw=0.010165804794520547 pf=0.92 conn=delta status=variable vmaxpu=1.5 vminpu=0.92 daily=IP
New load.pip527334-2 phases=1 bus=5009193607.1.2.4 model=3 kv=0.24 kw=0.010165804794520547 pf=0.92 conn=delta status=variable vmaxpu=1.5 vminpu=0.92 daily=IP

New load.pip547378-1 phases=1 bus=5009193625.1.2.4 model=2 kv=0.24 kw=0.01123835616438356 pf=0.92 conn=delta status=variable vmaxpu=1.5 vminpu=0.92 daily=IP
New load.pip547378-2 phases=1 bus=5009193625.1.2.4 model=3 kv=0.24 kw=0.01123835616438356 pf=0.92 conn=delta status=variable vmaxpu=1.5 vminpu=0.92 daily=IP

New load.pip554333-1 phases=1 bus=5009193641.1.2.4 model=2 kv=0.24 kw=0.009682465753424657 pf=0.92 conn=delta status=variable vmaxpu=1.5 vminpu=0.92 daily=IP
New load.pip554333-2 phases=1 bus=5009193641.1.2.4 model=3 kv=0.24 kw=0.009682465753424657 pf=0.92 conn=delta status=variable vmaxpu=1.5 vminpu=0.92 daily=IP

New load.pip555330-1 phases=1 bus=5009193682.1.2.4 model=2 kv=0.24 kw=0.01123835616438356 pf=0.92 conn=delta status=variable vmaxpu=1.5 vminpu=0.92 daily=IP
New load.pip555330-2 phases=1 bus=5009193682.1.2.4 model=3 kv=0.24 kw=0.01123835616438356 pf=0.92 conn=delta status=variable vmaxpu=1.5 vminpu=0.92 daily=IP

New load.pip555347-1 phases=1 bus=5009193685.1.2.4 model=2 kv=0.24 kw=0.01123835616438356 pf=0.92 conn=delta status=variable vmaxpu=1.5 vminpu=0.92 daily=IP
New load.pip555347-2 phases=1 bus=5009193685.1.2.4 model=3 kv=0.24 kw=0.01123835616438356 pf=0.92 conn=delta status=variable vmaxpu=1.5 vminpu=0.92 daily=IP

New load.pip557216-1 phases=1 bus=5009193700.1.2.4 model=2 kv=0.24 kw=0.008027186073059361 pf=0.92 conn=delta status=variable vmaxpu=1.5 vminpu=0.92 daily=IP
New load.pip557216-2 phases=1 bus=5009193700.1.2.4 model=3 kv=0.24 kw=0.008027186073059361 pf=0.92 conn=delta status=variable vmaxpu=1.5 vminpu=0.92 daily=IP

New load.pip559784-1 phases=1 bus=5009193695.1.2.4 model=2 kv=0.24 kw=0.01123835616438356 pf=0.92 conn=delta status=variable vmaxpu=1.5 vminpu=0.92 daily=IP
New load.pip559784-2 phases=1 bus=5009193695.1.2.4 model=3 kv=0.24 kw=0.01123835616438356 pf=0.92 conn=delta status=variable vmaxpu=1.5 vminpu=0.92 daily=IP

New load.pip562848-1 phases=1 bus=5009193618.1.2.4 model=2 kv=0.24 kw=0.01123835616438356 pf=0.92 conn=delta status=variable vmaxpu=1.5 vminpu=0.92 daily=IP
New load.pip562848-2 phases=1 bus=5009193618.1.2.4 model=3 kv=0.24 kw=0.01123835616438356 pf=0.92 conn=delta status=variable vmaxpu=1.5 vminpu=0.92 daily=IP

New load.pip566651-1 phases=1 bus=5009193688.1.2.4 model=2 kv=0.24 kw=0.010165804794520547 pf=0.92 conn=delta status=variable vmaxpu=1.5 vminpu=0.92 daily=IP
New load.pip566651-2 phases=1 bus=5009193688.1.2.4 model=3 kv=0.24 kw=0.010165804794520547 pf=0.92 conn=delta status=variable vmaxpu=1.5 vminpu=0.92 daily=IP

New load.pip567234-1 phases=1 bus=5009193687.1.2.4 model=2 kv=0.24 kw=0.010165804794520547 pf=0.92 conn=delta status=variable vmaxpu=1.5 vminpu=0.92 daily=IP
New load.pip567234-2 phases=1 bus=5009193687.1.2.4 model=3 kv=0.24 kw=0.010165804794520547 pf=0.92 conn=delta status=variable vmaxpu=1.5 vminpu=0.92 daily=IP

New load.pip567623-1 phases=1 bus=5009193632.1.2.4 model=2 kv=0.24 kw=0.01123835616438356 pf=0.92 conn=delta status=variable vmaxpu=1.5 vminpu=0.92 daily=IP
New load.pip567623-2 phases=1 bus=5009193632.1.2.4 model=3 kv=0.24 kw=0.01123835616438356 pf=0.92 conn=delta status=variable vmaxpu=1.5 vminpu=0.92 daily=IP

New load.pip631507-1 phases=1 bus=5001662063.1.2.4 model=2 kv=0.24 kw=0.01872919520547945 pf=0.92 conn=delta status=variable vmaxpu=1.5 vminpu=0.92 daily=IP
New load.pip631507-2 phases=1 bus=5001662063.1.2.4 model=3 kv=0.24 kw=0.01872919520547945 pf=0.92 conn=delta status=variable vmaxpu=1.5 vminpu=0.92 daily=IP

New load.pip644749-1 phases=1 bus=5001654839.1.2.4 model=2 kv=0.24 kw=0.01872919520547945 pf=0.92 conn=delta status=variable vmaxpu=1.5 vminpu=0.92 daily=IP
New load.pip644749-2 phases=1 bus=5001654839.1.2.4 model=3 kv=0.24 kw=0.01872919520547945 pf=0.92 conn=delta status=variable vmaxpu=1.5 vminpu=0.92 daily=IP

New load.pip645040-1 phases=1 bus=5001662420.1.2.4 model=2 kv=0.24 kw=0.026752049086757986 pf=0.92 conn=delta status=variable vmaxpu=1.5 vminpu=0.92 daily=IP
New load.pip645040-2 phases=1 bus=5001662420.1.2.4 model=3 kv=0.24 kw=0.026752049086757986 pf=0.92 conn=delta status=variable vmaxpu=1.5 vminpu=0.92 daily=IP

New load.pip646945-1 phases=1 bus=5001662350.1.2.4 model=2 kv=0.22 kw=0.01872919520547945 pf=0.92 conn=delta status=variable vmaxpu=1.5 vminpu=0.92 daily=IP
New load.pip646945-2 phases=1 bus=5001662350.1.2.4 model=3 kv=0.22 kw=0.01872919520547945 pf=0.92 conn=delta status=variable vmaxpu=1.5 vminpu=0.92 daily=IP

New load.pip647896-1 phases=1 bus=5001662357.3.1.4 model=2 kv=0.22 kw=0.01872919520547945 pf=0.92 conn=delta status=variable vmaxpu=1.5 vminpu=0.92 daily=IP
New load.pip647896-2 phases=1 bus=5001662357.3.1.4 model=3 kv=0.22 kw=0.01872919520547945 pf=0.92 conn=delta status=variable vmaxpu=1.5 vminpu=0.92 daily=IP

New load.pip649269-1 phases=1 bus=5009193619.1.2.4 model=2 kv=0.24 kw=0.01123835616438356 pf=0.92 conn=delta status=variable vmaxpu=1.5 vminpu=0.92 daily=IP
New load.pip649269-2 phases=1 bus=5009193619.1.2.4 model=3 kv=0.24 kw=0.01123835616438356 pf=0.92 conn=delta status=variable vmaxpu=1.5 vminpu=0.92 daily=IP

New load.pip650008-1 phases=1 bus=5009193689.1.2.4 model=2 kv=0.24 kw=0.01123835616438356 pf=0.92 conn=delta status=variable vmaxpu=1.5 vminpu=0.92 daily=IP
New load.pip650008-2 phases=1 bus=5009193689.1.2.4 model=3 kv=0.24 kw=0.01123835616438356 pf=0.92 conn=delta status=variable vmaxpu=1.5 vminpu=0.92 daily=IP

New load.pip652743-1 phases=1 bus=5001662035.1.2.4 model=2 kv=0.24 kw=0.01872919520547945 pf=0.92 conn=delta status=variable vmaxpu=1.5 vminpu=0.92 daily=IP
New load.pip652743-2 phases=1 bus=5001662035.1.2.4 model=3 kv=0.24 kw=0.01872919520547945 pf=0.92 conn=delta status=variable vmaxpu=1.5 vminpu=0.92 daily=IP

New load.pip653630-1 phases=1 bus=5001662343.2.3.4 model=2 kv=0.22 kw=0.01872919520547945 pf=0.92 conn=delta status=variable vmaxpu=1.5 vminpu=0.92 daily=IP
New load.pip653630-2 phases=1 bus=5001662343.2.3.4 model=3 kv=0.22 kw=0.01872919520547945 pf=0.92 conn=delta status=variable vmaxpu=1.5 vminpu=0.92 daily=IP

New load.pip654470-1 phases=1 bus=5001662378.1.2.4 model=2 kv=0.24 kw=0.01872919520547945 pf=0.92 conn=delta status=variable vmaxpu=1.5 vminpu=0.92 daily=IP
New load.pip654470-2 phases=1 bus=5001662378.1.2.4 model=3 kv=0.24 kw=0.01872919520547945 pf=0.92 conn=delta status=variable vmaxpu=1.5 vminpu=0.92 daily=IP

New load.pip655416-1 phases=1 bus=5001662238.1.2.4 model=2 kv=0.24 kw=0.01872919520547945 pf=0.92 conn=delta status=variable vmaxpu=1.5 vminpu=0.92 daily=IP
New load.pip655416-2 phases=1 bus=5001662238.1.2.4 model=3 kv=0.24 kw=0.01872919520547945 pf=0.92 conn=delta status=variable vmaxpu=1.5 vminpu=0.92 daily=IP

New load.pip655546-1 phases=1 bus=5009193611.1.2.4 model=2 kv=0.24 kw=0.010165804794520547 pf=0.92 conn=delta status=variable vmaxpu=1.5 vminpu=0.92 daily=IP
New load.pip655546-2 phases=1 bus=5009193611.1.2.4 model=3 kv=0.24 kw=0.010165804794520547 pf=0.92 conn=delta status=variable vmaxpu=1.5 vminpu=0.92 daily=IP

New load.pip660428-1 phases=1 bus=5009193616.1.2.4 model=2 kv=0.24 kw=0.010165804794520547 pf=0.92 conn=delta status=variable vmaxpu=1.5 vminpu=0.92 daily=IP
New load.pip660428-2 phases=1 bus=5009193616.1.2.4 model=3 kv=0.24 kw=0.010165804794520547 pf=0.92 conn=delta status=variable vmaxpu=1.5 vminpu=0.92 daily=IP

New load.pip662040-1 phases=1 bus=5001662581.1.2.4 model=2 kv=0.24 kw=0.01872919520547945 pf=0.92 conn=delta status=variable vmaxpu=1.5 vminpu=0.92 daily=IP
New load.pip662040-2 phases=1 bus=5001662581.1.2.4 model=3 kv=0.24 kw=0.01872919520547945 pf=0.92 conn=delta status=variable vmaxpu=1.5 vminpu=0.92 daily=IP

New load.pip663292-1 phases=1 bus=5001656715.1.2.4 model=2 kv=0.24 kw=0.01872919520547945 pf=0.92 conn=delta status=variable vmaxpu=1.5 vminpu=0.92 daily=IP
New load.pip663292-2 phases=1 bus=5001656715.1.2.4 model=3 kv=0.24 kw=0.01872919520547945 pf=0.92 conn=delta status=variable vmaxpu=1.5 vminpu=0.92 daily=IP

New load.pip665800-1 phases=1 bus=5001662308.2.3.4 model=2 kv=0.22 kw=0.01872919520547945 pf=0.92 conn=delta status=variable vmaxpu=1.5 vminpu=0.92 daily=IP
New load.pip665800-2 phases=1 bus=5001662308.2.3.4 model=3 kv=0.22 kw=0.01872919520547945 pf=0.92 conn=delta status=variable vmaxpu=1.5 vminpu=0.92 daily=IP

New load.pip666610-1 phases=1 bus=5001662028.1.2.4 model=2 kv=0.24 kw=0.01872919520547945 pf=0.92 conn=delta status=variable vmaxpu=1.5 vminpu=0.92 daily=IP
New load.pip666610-2 phases=1 bus=5001662028.1.2.4 model=3 kv=0.24 kw=0.01872919520547945 pf=0.92 conn=delta status=variable vmaxpu=1.5 vminpu=0.92 daily=IP

New load.pip668525-1 phases=1 bus=5001655266.1.2.4 model=2 kv=0.24 kw=0.01872919520547945 pf=0.92 conn=delta status=variable vmaxpu=1.5 vminpu=0.92 daily=IP
New load.pip668525-2 phases=1 bus=5001655266.1.2.4 model=3 kv=0.24 kw=0.01872919520547945 pf=0.92 conn=delta status=variable vmaxpu=1.5 vminpu=0.92 daily=IP

New load.pip669111-1 phases=1 bus=5001654748.1.2.4 model=2 kv=0.24 kw=0.01872919520547945 pf=0.92 conn=delta status=variable vmaxpu=1.5 vminpu=0.92 daily=IP
New load.pip669111-2 phases=1 bus=5001654748.1.2.4 model=3 kv=0.24 kw=0.01872919520547945 pf=0.92 conn=delta status=variable vmaxpu=1.5 vminpu=0.92 daily=IP

New load.pip669519-1 phases=1 bus=5001662413.1.2.4 model=2 kv=0.24 kw=0.01872919520547945 pf=0.92 conn=delta status=variable vmaxpu=1.5 vminpu=0.92 daily=IP
New load.pip669519-2 phases=1 bus=5001662413.1.2.4 model=3 kv=0.24 kw=0.01872919520547945 pf=0.92 conn=delta status=variable vmaxpu=1.5 vminpu=0.92 daily=IP

New load.pip669534-1 phases=1 bus=5001662399.1.2.4 model=2 kv=0.24 kw=0.01872919520547945 pf=0.92 conn=delta status=variable vmaxpu=1.5 vminpu=0.92 daily=IP
New load.pip669534-2 phases=1 bus=5001662399.1.2.4 model=3 kv=0.24 kw=0.01872919520547945 pf=0.92 conn=delta status=variable vmaxpu=1.5 vminpu=0.92 daily=IP

New load.pip671679-1 phases=1 bus=5001656701.1.2.4 model=2 kv=0.24 kw=0.01872919520547945 pf=0.92 conn=delta status=variable vmaxpu=1.5 vminpu=0.92 daily=IP
New load.pip671679-2 phases=1 bus=5001656701.1.2.4 model=3 kv=0.24 kw=0.01872919520547945 pf=0.92 conn=delta status=variable vmaxpu=1.5 vminpu=0.92 daily=IP

New load.pip675943-1 phases=1 bus=5001662371.1.2.4 model=2 kv=0.24 kw=0.01872919520547945 pf=0.92 conn=delta status=variable vmaxpu=1.5 vminpu=0.92 daily=IP
New load.pip675943-2 phases=1 bus=5001662371.1.2.4 model=3 kv=0.24 kw=0.01872919520547945 pf=0.92 conn=delta status=variable vmaxpu=1.5 vminpu=0.92 daily=IP

New load.pip679677-1 phases=1 bus=5001656211.1.2.4 model=2 kv=0.24 kw=0.01872919520547945 pf=0.92 conn=delta status=variable vmaxpu=1.5 vminpu=0.92 daily=IP
New load.pip679677-2 phases=1 bus=5001656211.1.2.4 model=3 kv=0.24 kw=0.01872919520547945 pf=0.92 conn=delta status=variable vmaxpu=1.5 vminpu=0.92 daily=IP

New load.pip682983-1 phases=1 bus=5009193623.1.2.4 model=2 kv=0.24 kw=0.01123835616438356 pf=0.92 conn=delta status=variable vmaxpu=1.5 vminpu=0.92 daily=IP
New load.pip682983-2 phases=1 bus=5009193623.1.2.4 model=3 kv=0.24 kw=0.01123835616438356 pf=0.92 conn=delta status=variable vmaxpu=1.5 vminpu=0.92 daily=IP

New load.pip686378-1 phases=1 bus=5009193622.1.2.4 model=2 kv=0.24 kw=0.010165804794520547 pf=0.92 conn=delta status=variable vmaxpu=1.5 vminpu=0.92 daily=IP
New load.pip686378-2 phases=1 bus=5009193622.1.2.4 model=3 kv=0.24 kw=0.010165804794520547 pf=0.92 conn=delta status=variable vmaxpu=1.5 vminpu=0.92 daily=IP

New load.pip688565-1 phases=1 bus=5009193690.1.2.4 model=2 kv=0.24 kw=0.01123835616438356 pf=0.92 conn=delta status=variable vmaxpu=1.5 vminpu=0.92 daily=IP
New load.pip688565-2 phases=1 bus=5009193690.1.2.4 model=3 kv=0.24 kw=0.01123835616438356 pf=0.92 conn=delta status=variable vmaxpu=1.5 vminpu=0.92 daily=IP

New load.pip691391-1 phases=1 bus=5009193610.1.2.4 model=2 kv=0.24 kw=0.010165804794520547 pf=0.92 conn=delta status=variable vmaxpu=1.5 vminpu=0.92 daily=IP
New load.pip691391-2 phases=1 bus=5009193610.1.2.4 model=3 kv=0.24 kw=0.010165804794520547 pf=0.92 conn=delta status=variable vmaxpu=1.5 vminpu=0.92 daily=IP

New load.pip691559-1 phases=1 bus=5009193614.1.2.4 model=2 kv=0.24 kw=0.010165804794520547 pf=0.92 conn=delta status=variable vmaxpu=1.5 vminpu=0.92 daily=IP
New load.pip691559-2 phases=1 bus=5009193614.1.2.4 model=3 kv=0.24 kw=0.010165804794520547 pf=0.92 conn=delta status=variable vmaxpu=1.5 vminpu=0.92 daily=IP

New load.pip694873-1 phases=1 bus=5009193684.1.2.4 model=2 kv=0.24 kw=0.01123835616438356 pf=0.92 conn=delta status=variable vmaxpu=1.5 vminpu=0.92 daily=IP
New load.pip694873-2 phases=1 bus=5009193684.1.2.4 model=3 kv=0.24 kw=0.01123835616438356 pf=0.92 conn=delta status=variable vmaxpu=1.5 vminpu=0.92 daily=IP

New load.pip695179-1 phases=1 bus=5001662077.1.2.4 model=2 kv=0.24 kw=0.01872919520547945 pf=0.92 conn=delta status=variable vmaxpu=1.5 vminpu=0.92 daily=IP
New load.pip695179-2 phases=1 bus=5001662077.1.2.4 model=3 kv=0.24 kw=0.01872919520547945 pf=0.92 conn=delta status=variable vmaxpu=1.5 vminpu=0.92 daily=IP

New load.pip695638-1 phases=1 bus=5001656778.1.2.4 model=2 kv=0.24 kw=0.01872919520547945 pf=0.92 conn=delta status=variable vmaxpu=1.5 vminpu=0.92 daily=IP
New load.pip695638-2 phases=1 bus=5001656778.1.2.4 model=3 kv=0.24 kw=0.01872919520547945 pf=0.92 conn=delta status=variable vmaxpu=1.5 vminpu=0.92 daily=IP

New load.pip699090-1 phases=1 bus=5001654734.1.2.4 model=2 kv=0.24 kw=0.01872919520547945 pf=0.92 conn=delta status=variable vmaxpu=1.5 vminpu=0.92 daily=IP
New load.pip699090-2 phases=1 bus=5001654734.1.2.4 model=3 kv=0.24 kw=0.01872919520547945 pf=0.92 conn=delta status=variable vmaxpu=1.5 vminpu=0.92 daily=IP

New load.pip700592-1 phases=1 bus=5001656722.1.2.4 model=2 kv=0.24 kw=0.01872919520547945 pf=0.92 conn=delta status=variable vmaxpu=1.5 vminpu=0.92 daily=IP
New load.pip700592-2 phases=1 bus=5001656722.1.2.4 model=3 kv=0.24 kw=0.01872919520547945 pf=0.92 conn=delta status=variable vmaxpu=1.5 vminpu=0.92 daily=IP

New load.pip702021-1 phases=1 bus=5001662301.3.1.4 model=2 kv=0.22 kw=0.01872919520547945 pf=0.92 conn=delta status=variable vmaxpu=1.5 vminpu=0.92 daily=IP
New load.pip702021-2 phases=1 bus=5001662301.3.1.4 model=3 kv=0.22 kw=0.01872919520547945 pf=0.92 conn=delta status=variable vmaxpu=1.5 vminpu=0.92 daily=IP

New load.pip702404-1 phases=1 bus=5001662231.1.2.4 model=2 kv=0.24 kw=0.01872919520547945 pf=0.92 conn=delta status=variable vmaxpu=1.5 vminpu=0.92 daily=IP
New load.pip702404-2 phases=1 bus=5001662231.1.2.4 model=3 kv=0.24 kw=0.01872919520547945 pf=0.92 conn=delta status=variable vmaxpu=1.5 vminpu=0.92 daily=IP

New load.pip706260-1 phases=1 bus=5001662245.1.2.4 model=2 kv=0.24 kw=0.01872919520547945 pf=0.92 conn=delta status=variable vmaxpu=1.5 vminpu=0.92 daily=IP
New load.pip706260-2 phases=1 bus=5001662245.1.2.4 model=3 kv=0.24 kw=0.01872919520547945 pf=0.92 conn=delta status=variable vmaxpu=1.5 vminpu=0.92 daily=IP

New load.pip706351-1 phases=1 bus=5001656316.1.2.4 model=2 kv=0.24 kw=0.01872919520547945 pf=0.92 conn=delta status=variable vmaxpu=1.5 vminpu=0.92 daily=IP
New load.pip706351-2 phases=1 bus=5001656316.1.2.4 model=3 kv=0.24 kw=0.01872919520547945 pf=0.92 conn=delta status=variable vmaxpu=1.5 vminpu=0.92 daily=IP

New load.pip706388-1 phases=1 bus=5001662406.1.2.4 model=2 kv=0.24 kw=0.01872919520547945 pf=0.92 conn=delta status=variable vmaxpu=1.5 vminpu=0.92 daily=IP
New load.pip706388-2 phases=1 bus=5001662406.1.2.4 model=3 kv=0.24 kw=0.01872919520547945 pf=0.92 conn=delta status=variable vmaxpu=1.5 vminpu=0.92 daily=IP

New load.pip708353-1 phases=1 bus=5001662574.1.2.4 model=2 kv=0.24 kw=0.01872919520547945 pf=0.92 conn=delta status=variable vmaxpu=1.5 vminpu=0.92 daily=IP
New load.pip708353-2 phases=1 bus=5001662574.1.2.4 model=3 kv=0.24 kw=0.01872919520547945 pf=0.92 conn=delta status=variable vmaxpu=1.5 vminpu=0.92 daily=IP

New load.pip709619-1 phases=1 bus=5001656225.1.2.4 model=2 kv=0.24 kw=0.01872919520547945 pf=0.92 conn=delta status=variable vmaxpu=1.5 vminpu=0.92 daily=IP
New load.pip709619-2 phases=1 bus=5001656225.1.2.4 model=3 kv=0.24 kw=0.01872919520547945 pf=0.92 conn=delta status=variable vmaxpu=1.5 vminpu=0.92 daily=IP

New load.pip709642-1 phases=1 bus=5001656302.1.2.4 model=2 kv=0.24 kw=0.01872919520547945 pf=0.92 conn=delta status=variable vmaxpu=1.5 vminpu=0.92 daily=IP
New load.pip709642-2 phases=1 bus=5001656302.1.2.4 model=3 kv=0.24 kw=0.01872919520547945 pf=0.92 conn=delta status=variable vmaxpu=1.5 vminpu=0.92 daily=IP

New load.pip709930-1 phases=1 bus=5001662056.1.2.4 model=2 kv=0.24 kw=0.01872919520547945 pf=0.92 conn=delta status=variable vmaxpu=1.5 vminpu=0.92 daily=IP
New load.pip709930-2 phases=1 bus=5001662056.1.2.4 model=3 kv=0.24 kw=0.01872919520547945 pf=0.92 conn=delta status=variable vmaxpu=1.5 vminpu=0.92 daily=IP

New load.pip710628-1 phases=1 bus=5009193645.1.2.4 model=2 kv=0.24 kw=0.01123835616438356 pf=0.92 conn=delta status=variable vmaxpu=1.5 vminpu=0.92 daily=IP
New load.pip710628-2 phases=1 bus=5009193645.1.2.4 model=3 kv=0.24 kw=0.01123835616438356 pf=0.92 conn=delta status=variable vmaxpu=1.5 vminpu=0.92 daily=IP

New load.pip714676-1 phases=1 bus=5001662385.1.2.4 model=2 kv=0.24 kw=0.01872919520547945 pf=0.92 conn=delta status=variable vmaxpu=1.5 vminpu=0.92 daily=IP
New load.pip714676-2 phases=1 bus=5001662385.1.2.4 model=3 kv=0.24 kw=0.01872919520547945 pf=0.92 conn=delta status=variable vmaxpu=1.5 vminpu=0.92 daily=IP

New load.pip715197-1 phases=1 bus=5001662434.1.2.4 model=2 kv=0.24 kw=0.01872919520547945 pf=0.92 conn=delta status=variable vmaxpu=1.5 vminpu=0.92 daily=IP
New load.pip715197-2 phases=1 bus=5001662434.1.2.4 model=3 kv=0.24 kw=0.01872919520547945 pf=0.92 conn=delta status=variable vmaxpu=1.5 vminpu=0.92 daily=IP

New load.pip715825-1 phases=1 bus=5001656309.1.2.4 model=2 kv=0.24 kw=0.01872919520547945 pf=0.92 conn=delta status=variable vmaxpu=1.5 vminpu=0.92 daily=IP
New load.pip715825-2 phases=1 bus=5001656309.1.2.4 model=3 kv=0.24 kw=0.01872919520547945 pf=0.92 conn=delta status=variable vmaxpu=1.5 vminpu=0.92 daily=IP

New load.pip719836-1 phases=1 bus=5009193693.1.2.4 model=2 kv=0.24 kw=0.01123835616438356 pf=0.92 conn=delta status=variable vmaxpu=1.5 vminpu=0.92 daily=IP
New load.pip719836-2 phases=1 bus=5009193693.1.2.4 model=3 kv=0.24 kw=0.01123835616438356 pf=0.92 conn=delta status=variable vmaxpu=1.5 vminpu=0.92 daily=IP

New load.pip725449-1 phases=1 bus=5001662259.1.2.4 model=2 kv=0.24 kw=0.01872919520547945 pf=0.92 conn=delta status=variable vmaxpu=1.5 vminpu=0.92 daily=IP
New load.pip725449-2 phases=1 bus=5001662259.1.2.4 model=3 kv=0.24 kw=0.01872919520547945 pf=0.92 conn=delta status=variable vmaxpu=1.5 vminpu=0.92 daily=IP

New load.pip726753-1 phases=1 bus=5001662021.1.2.4 model=2 kv=0.24 kw=0.01872919520547945 pf=0.92 conn=delta status=variable vmaxpu=1.5 vminpu=0.92 daily=IP
New load.pip726753-2 phases=1 bus=5001662021.1.2.4 model=3 kv=0.24 kw=0.01872919520547945 pf=0.92 conn=delta status=variable vmaxpu=1.5 vminpu=0.92 daily=IP

New load.pip731385-1 phases=1 bus=5001656764.1.2.4 model=2 kv=0.24 kw=0.01872919520547945 pf=0.92 conn=delta status=variable vmaxpu=1.5 vminpu=0.92 daily=IP
New load.pip731385-2 phases=1 bus=5001656764.1.2.4 model=3 kv=0.24 kw=0.01872919520547945 pf=0.92 conn=delta status=variable vmaxpu=1.5 vminpu=0.92 daily=IP

New load.pip733242-1 phases=1 bus=5009193608.1.2.4 model=2 kv=0.24 kw=0.010165804794520547 pf=0.92 conn=delta status=variable vmaxpu=1.5 vminpu=0.92 daily=IP
New load.pip733242-2 phases=1 bus=5009193608.1.2.4 model=3 kv=0.24 kw=0.010165804794520547 pf=0.92 conn=delta status=variable vmaxpu=1.5 vminpu=0.92 daily=IP

New load.pip733899-1 phases=1 bus=5009193626.1.2.4 model=2 kv=0.24 kw=0.01123835616438356 pf=0.92 conn=delta status=variable vmaxpu=1.5 vminpu=0.92 daily=IP
New load.pip733899-2 phases=1 bus=5009193626.1.2.4 model=3 kv=0.24 kw=0.01123835616438356 pf=0.92 conn=delta status=variable vmaxpu=1.5 vminpu=0.92 daily=IP

New load.pip735184-1 phases=1 bus=5001662392.1.2.4 model=2 kv=0.24 kw=0.01872919520547945 pf=0.92 conn=delta status=variable vmaxpu=1.5 vminpu=0.92 daily=IP
New load.pip735184-2 phases=1 bus=5001662392.1.2.4 model=3 kv=0.24 kw=0.01872919520547945 pf=0.92 conn=delta status=variable vmaxpu=1.5 vminpu=0.92 daily=IP

New load.pip735732-1 phases=1 bus=5001656729.1.2.4 model=2 kv=0.24 kw=0.01872919520547945 pf=0.92 conn=delta status=variable vmaxpu=1.5 vminpu=0.92 daily=IP
New load.pip735732-2 phases=1 bus=5001656729.1.2.4 model=3 kv=0.24 kw=0.01872919520547945 pf=0.92 conn=delta status=variable vmaxpu=1.5 vminpu=0.92 daily=IP

New load.pip738649-1 phases=1 bus=5009193642.1.2.4 model=2 kv=0.24 kw=0.01123835616438356 pf=0.92 conn=delta status=variable vmaxpu=1.5 vminpu=0.92 daily=IP
New load.pip738649-2 phases=1 bus=5009193642.1.2.4 model=3 kv=0.24 kw=0.01123835616438356 pf=0.92 conn=delta status=variable vmaxpu=1.5 vminpu=0.92 daily=IP

New load.pip740086-1 phases=1 bus=5001662567.1.2.4 model=2 kv=0.24 kw=0.01872919520547945 pf=0.92 conn=delta status=variable vmaxpu=1.5 vminpu=0.92 daily=IP
New load.pip740086-2 phases=1 bus=5001662567.1.2.4 model=3 kv=0.24 kw=0.01872919520547945 pf=0.92 conn=delta status=variable vmaxpu=1.5 vminpu=0.92 daily=IP

New load.pip741518-1 phases=1 bus=5009193680.1.2.4 model=2 kv=0.24 kw=0.010165804794520547 pf=0.92 conn=delta status=variable vmaxpu=1.5 vminpu=0.92 daily=IP
New load.pip741518-2 phases=1 bus=5009193680.1.2.4 model=3 kv=0.24 kw=0.010165804794520547 pf=0.92 conn=delta status=variable vmaxpu=1.5 vminpu=0.92 daily=IP

New load.pip742448-1 phases=1 bus=5001662049.1.2.4 model=2 kv=0.24 kw=0.01872919520547945 pf=0.92 conn=delta status=variable vmaxpu=1.5 vminpu=0.92 daily=IP
New load.pip742448-2 phases=1 bus=5001662049.1.2.4 model=3 kv=0.24 kw=0.01872919520547945 pf=0.92 conn=delta status=variable vmaxpu=1.5 vminpu=0.92 daily=IP

New load.pip743902-1 phases=1 bus=5001662294.1.2.4 model=2 kv=0.22 kw=0.01872919520547945 pf=0.92 conn=delta status=variable vmaxpu=1.5 vminpu=0.92 daily=IP
New load.pip743902-2 phases=1 bus=5001662294.1.2.4 model=3 kv=0.22 kw=0.01872919520547945 pf=0.92 conn=delta status=variable vmaxpu=1.5 vminpu=0.92 daily=IP

New load.pip744895-1 phases=1 bus=5009193663.1.2.4 model=2 kv=0.24 kw=0.01123835616438356 pf=0.92 conn=delta status=variable vmaxpu=1.5 vminpu=0.92 daily=IP
New load.pip744895-2 phases=1 bus=5009193663.1.2.4 model=3 kv=0.24 kw=0.01123835616438356 pf=0.92 conn=delta status=variable vmaxpu=1.5 vminpu=0.92 daily=IP

New load.pip747563-1 phases=1 bus=5009193661.1.2.4 model=2 kv=0.24 kw=0.01123835616438356 pf=0.92 conn=delta status=variable vmaxpu=1.5 vminpu=0.92 daily=IP
New load.pip747563-2 phases=1 bus=5009193661.1.2.4 model=3 kv=0.24 kw=0.01123835616438356 pf=0.92 conn=delta status=variable vmaxpu=1.5 vminpu=0.92 daily=IP

New load.pip747564-1 phases=1 bus=5009193662.1.2.4 model=2 kv=0.24 kw=0.01123835616438356 pf=0.92 conn=delta status=variable vmaxpu=1.5 vminpu=0.92 daily=IP
New load.pip747564-2 phases=1 bus=5009193662.1.2.4 model=3 kv=0.24 kw=0.01123835616438356 pf=0.92 conn=delta status=variable vmaxpu=1.5 vminpu=0.92 daily=IP

New load.pip749351-1 phases=1 bus=5001655707.1.2.4 model=2 kv=0.24 kw=0.01872919520547945 pf=0.92 conn=delta status=variable vmaxpu=1.5 vminpu=0.92 daily=IP
New load.pip749351-2 phases=1 bus=5001655707.1.2.4 model=3 kv=0.24 kw=0.01872919520547945 pf=0.92 conn=delta status=variable vmaxpu=1.5 vminpu=0.92 daily=IP

New load.pip749352-1 phases=1 bus=5001655686.1.2.4 model=2 kv=0.24 kw=0.01872919520547945 pf=0.92 conn=delta status=variable vmaxpu=1.5 vminpu=0.92 daily=IP
New load.pip749352-2 phases=1 bus=5001655686.1.2.4 model=3 kv=0.24 kw=0.01872919520547945 pf=0.92 conn=delta status=variable vmaxpu=1.5 vminpu=0.92 daily=IP

New load.pip749856-1 phases=1 bus=5001654846.1.2.4 model=2 kv=0.24 kw=0.01872919520547945 pf=0.92 conn=delta status=variable vmaxpu=1.5 vminpu=0.92 daily=IP
New load.pip749856-2 phases=1 bus=5001654846.1.2.4 model=3 kv=0.24 kw=0.01872919520547945 pf=0.92 conn=delta status=variable vmaxpu=1.5 vminpu=0.92 daily=IP

New load.pip751651-1 phases=1 bus=5001654601.1.2.4 model=2 kv=0.24 kw=0.01872919520547945 pf=0.92 conn=delta status=variable vmaxpu=1.5 vminpu=0.92 daily=IP
New load.pip751651-2 phases=1 bus=5001654601.1.2.4 model=3 kv=0.24 kw=0.01872919520547945 pf=0.92 conn=delta status=variable vmaxpu=1.5 vminpu=0.92 daily=IP

New load.pip751789-1 phases=1 bus=5009193694.1.2.4 model=2 kv=0.24 kw=0.01123835616438356 pf=0.92 conn=delta status=variable vmaxpu=1.5 vminpu=0.92 daily=IP
New load.pip751789-2 phases=1 bus=5009193694.1.2.4 model=3 kv=0.24 kw=0.01123835616438356 pf=0.92 conn=delta status=variable vmaxpu=1.5 vminpu=0.92 daily=IP

New load.pip752068-1 phases=1 bus=5001656197.1.2.4 model=2 kv=0.24 kw=0.01872919520547945 pf=0.92 conn=delta status=variable vmaxpu=1.5 vminpu=0.92 daily=IP
New load.pip752068-2 phases=1 bus=5001656197.1.2.4 model=3 kv=0.24 kw=0.01872919520547945 pf=0.92 conn=delta status=variable vmaxpu=1.5 vminpu=0.92 daily=IP

New load.pip754202-1 phases=1 bus=5001662126.1.2.4 model=2 kv=0.22 kw=0.01872919520547945 pf=0.92 conn=delta status=variable vmaxpu=1.5 vminpu=0.92 daily=IP
New load.pip754202-2 phases=1 bus=5001662126.1.2.4 model=3 kv=0.22 kw=0.01872919520547945 pf=0.92 conn=delta status=variable vmaxpu=1.5 vminpu=0.92 daily=IP
