New line.ram2433036 phases=2 bus1=2330122.1.4 bus2=4002433036.1.4 length=0.017 units=km linecode=CABBTG01_4_1_2
New line.ram2433057 phases=2 bus1=1795938.1.4 bus2=4002433057.1.4 length=0.017 units=km linecode=CABBTG01_4_1_2
New line.ram2433064 phases=2 bus1=136212311.2.4 bus2=4002433064.2.4 length=0.017 units=km linecode=CABBTG02_4_1_2
New line.ram2433071 phases=3 bus1=1795945.1.2.4 bus2=4002433071.1.2.4 length=0.017 units=km linecode=CABBTG05_4_2_3
New line.ram2433078 phases=2 bus1=1795952.1.4 bus2=4002433078.1.4 length=0.017 units=km linecode=CABBTG01_4_1_2
New line.ram2433085 phases=3 bus1=1795959.1.2.4 bus2=4002433085.1.2.4 length=0.017 units=km linecode=CABBTG05_4_2_3
New line.ram2433092 phases=3 bus1=1795959.1.2.4 bus2=4002433092.1.2.4 length=0.017 units=km linecode=CABBTG05_4_2_3
New line.ram2433099 phases=2 bus1=1795959.1.4 bus2=4002433099.1.4 length=0.017 units=km linecode=CABBTG01_4_1_2
New line.ram2433106 phases=3 bus1=136211926.1.2.4 bus2=4002433106.1.2.4 length=0.017 units=km linecode=CABBTG05_4_2_3
New line.ram2433113 phases=3 bus1=136212290.1.2.4 bus2=4002433113.1.2.4 length=0.017 units=km linecode=CABBTG05_4_2_3
New line.ram2433141 phases=2 bus1=1796036.2.4 bus2=4002433141.2.4 length=0.017 units=km linecode=CABBTG01_4_1_2
New line.ram2433148 phases=2 bus1=1796036.1.4 bus2=4002433148.1.4 length=0.017 units=km linecode=CABBTG01_4_1_2
New line.ram2433155 phases=2 bus1=1796036.1.4 bus2=4002433155.1.4 length=0.017 units=km linecode=CABBTG01_4_1_2
New line.ram2433162 phases=3 bus1=1796036.1.2.4 bus2=4002433162.1.2.4 length=0.017 units=km linecode=CABBTG05_4_2_3
New line.ram2433169 phases=2 bus1=1796043.1.4 bus2=4002433169.1.4 length=0.017 units=km linecode=CABBTG01_4_1_2
New line.ram2433176 phases=2 bus1=1796043.2.4 bus2=4002433176.2.4 length=0.017 units=km linecode=CABBTG01_4_1_2
New line.ram2433183 phases=3 bus1=1796057.1.2.4 bus2=4002433183.1.2.4 length=0.017 units=km linecode=CABBTG05_4_2_3
New line.ram2433190 phases=2 bus1=1796057.2.4 bus2=4002433190.2.4 length=0.017 units=km linecode=CABBTG01_4_1_2
New line.ram2433197 phases=2 bus1=1796057.1.4 bus2=4002433197.1.4 length=0.017 units=km linecode=CABBTG01_4_1_2
New line.ram2433204 phases=3 bus1=1796071.1.2.4 bus2=4002433204.1.2.4 length=0.017 units=km linecode=CABBTG05_4_2_3
New line.ram2433211 phases=3 bus1=2330101.1.2.4 bus2=4002433211.1.2.4 length=0.017 units=km linecode=CABBTG05_4_2_3
New line.ram2433218 phases=2 bus1=1796085.2.4 bus2=4002433218.2.4 length=0.017 units=km linecode=CABBTG01_4_1_2
New line.ram2433225 phases=3 bus1=1796085.1.2.4 bus2=4002433225.1.2.4 length=0.017 units=km linecode=CABBTG05_4_2_3
New line.ram2433232 phases=3 bus1=1796092.1.2.4 bus2=4002433232.1.2.4 length=0.017 units=km linecode=CABBTG05_4_2_3
New line.ram2433239 phases=2 bus1=1796099.2.4 bus2=4002433239.2.4 length=0.017 units=km linecode=CABBTG01_4_1_2
New line.ram2433246 phases=2 bus1=1796099.2.4 bus2=4002433246.2.4 length=0.017 units=km linecode=CABBTG01_4_1_2
New line.ram2433253 phases=3 bus1=1796127.1.2.4 bus2=4002433253.1.2.4 length=0.017 units=km linecode=CABBTG05_4_2_3
New line.ram2433260 phases=2 bus1=1796127.2.4 bus2=4002433260.2.4 length=0.017 units=km linecode=CABBTG01_4_1_2
New line.ram2433267 phases=2 bus1=1796127.1.4 bus2=4002433267.1.4 length=0.017 units=km linecode=CABBTG01_4_1_2
New line.ram2433484 phases=4 bus1=1796617.1.2.3.4 bus2=4002433484.1.2.3.4 length=0.017 units=km linecode=CABBTG06_4_3_4
New line.ram2431209 phases=3 bus1=1792382.1.2.4 bus2=4002431209.1.2.4 length=0.017 units=km linecode=CABBTG05_4_2_3
New line.ram2431517 phases=3 bus1=1792998.1.2.4 bus2=4002431517.1.2.4 length=0.017 units=km linecode=CABBTG05_4_2_3
New line.ram2431580 phases=3 bus1=1793124.1.2.4 bus2=4002431580.1.2.4 length=0.017 units=km linecode=CABBTG05_4_2_3
New line.ram2431741 phases=3 bus1=1793446.1.2.4 bus2=4002431741.1.2.4 length=0.017 units=km linecode=CABBTG05_4_2_3
New line.ram2431755 phases=3 bus1=1793474.1.2.4 bus2=4002431755.1.2.4 length=0.017 units=km linecode=CABBTG05_4_2_3
New line.ram2431832 phases=3 bus1=1793642.1.2.4 bus2=4002431832.1.2.4 length=0.017 units=km linecode=CABBTG05_4_2_3
New line.ram2431839 phases=3 bus1=1793656.1.2.4 bus2=4002431839.1.2.4 length=0.017 units=km linecode=CABBTG05_4_2_3
New line.ram2431853 phases=3 bus1=1793684.1.2.4 bus2=4002431853.1.2.4 length=0.017 units=km linecode=CABBTG05_4_2_3
New line.ram2431860 phases=3 bus1=1793698.1.2.4 bus2=4002431860.1.2.4 length=0.017 units=km linecode=CABBTG05_4_2_3
New line.ram2431965 phases=4 bus1=1793908.1.2.3.4 bus2=4002431965.1.2.3.4 length=0.017 units=km linecode=CABBTG07_4_3_4
New line.ram2431993 phases=3 bus1=1793964.1.2.4 bus2=4002431993.1.2.4 length=0.017 units=km linecode=CABBTG05_4_2_3
New line.ram2432021 phases=3 bus1=1794020.1.2.4 bus2=4002432021.1.2.4 length=0.017 units=km linecode=CABBTG05_4_2_3
New line.ram2432098 phases=3 bus1=1794174.1.2.4 bus2=4002432098.1.2.4 length=0.017 units=km linecode=CABBTG05_4_2_3
New line.ram2432119 phases=3 bus1=1794216.1.2.4 bus2=4002432119.1.2.4 length=0.017 units=km linecode=CABBTG05_4_2_3
New line.ram2432140 phases=3 bus1=1794258.1.2.4 bus2=4002432140.1.2.4 length=0.017 units=km linecode=CABBTG05_4_2_3
New line.ram2432168 phases=4 bus1=1794314.1.2.3.4 bus2=4002432168.1.2.3.4 length=0.017 units=km linecode=CABBTG07_4_3_4
New line.ram2432182 phases=3 bus1=1794342.1.2.4 bus2=4002432182.1.2.4 length=0.017 units=km linecode=CABBTG05_4_2_3
New line.ram2432238 phases=3 bus1=1794454.1.2.4 bus2=4002432238.1.2.4 length=0.017 units=km linecode=CABBTG05_4_2_3
New line.ram2432245 phases=3 bus1=1794468.1.2.4 bus2=4002432245.1.2.4 length=0.017 units=km linecode=CABBTG05_4_2_3
New line.ram2432273 phases=3 bus1=1794524.1.2.4 bus2=4002432273.1.2.4 length=0.017 units=km linecode=CABBTG05_4_2_3
New line.ram2432301 phases=3 bus1=1794580.1.2.4 bus2=4002432301.1.2.4 length=0.017 units=km linecode=CABBTG05_4_2_3
New line.ram2432315 phases=3 bus1=1794594.1.2.4 bus2=4002432315.1.2.4 length=0.017 units=km linecode=CABBTG05_4_2_3
New line.ram2432336 phases=3 bus1=1794636.1.2.4 bus2=4002432336.1.2.4 length=0.017 units=km linecode=CABBTG05_4_2_3
New line.ram2432343 phases=3 bus1=1794650.1.2.4 bus2=4002432343.1.2.4 length=0.017 units=km linecode=CABBTG05_4_2_3
New line.ram2432350 phases=3 bus1=1794664.1.2.4 bus2=4002432350.1.2.4 length=0.017 units=km linecode=CABBTG05_4_2_3
New line.ram2432357 phases=3 bus1=1794678.1.2.4 bus2=4002432357.1.2.4 length=0.017 units=km linecode=CABBTG05_4_2_3
New line.ram2432364 phases=3 bus1=1794692.1.2.4 bus2=4002432364.1.2.4 length=0.017 units=km linecode=CABBTG05_4_2_3
New line.ram2432385 phases=3 bus1=1794734.1.2.4 bus2=4002432385.1.2.4 length=0.017 units=km linecode=CABBTG05_4_2_3
New line.ram2432392 phases=3 bus1=1794748.1.2.4 bus2=4002432392.1.2.4 length=0.017 units=km linecode=CABBTG05_4_2_3
New line.ram2432434 phases=3 bus1=1794832.1.2.4 bus2=4002432434.1.2.4 length=0.017 units=km linecode=CABBTG05_4_2_3
New line.ram2432448 phases=3 bus1=1794860.1.2.4 bus2=4002432448.1.2.4 length=0.017 units=km linecode=CABBTG05_4_2_3
New line.ram2432462 phases=4 bus1=1794888.1.2.3.4 bus2=4002432462.1.2.3.4 length=0.017 units=km linecode=CABBTG12_4_3_4
New line.ram2432476 phases=3 bus1=1794916.1.2.4 bus2=4002432476.1.2.4 length=0.017 units=km linecode=CABBTG05_4_2_3
New line.ram2432567 phases=3 bus1=1795042.1.2.4 bus2=4002432567.1.2.4 length=0.017 units=km linecode=CABBTG05_4_2_3
New line.ram2432581 phases=3 bus1=1795070.1.2.4 bus2=4002432581.1.2.4 length=0.017 units=km linecode=CABBTG05_4_2_3
New line.ram2432595 phases=3 bus1=1795098.1.2.4 bus2=4002432595.1.2.4 length=0.017 units=km linecode=CABBTG13_4_2_3
New line.ram2432609 phases=3 bus1=1795126.1.2.4 bus2=4002432609.1.2.4 length=0.017 units=km linecode=CABBTG05_4_2_3
New line.ram2432616 phases=4 bus1=1795140.1.2.3.4 bus2=4002432616.1.2.3.4 length=0.017 units=km linecode=CABBTG07_4_3_4
New line.ram2432630 phases=4 bus1=1795168.1.2.3.4 bus2=4002432630.1.2.3.4 length=0.017 units=km linecode=CABBTG07_4_3_4
New line.ram2432644 phases=3 bus1=1795196.1.2.4 bus2=4002432644.1.2.4 length=0.017 units=km linecode=CABBTG05_4_2_3
New line.ram2432665 phases=3 bus1=1795238.1.2.4 bus2=4002432665.1.2.4 length=0.017 units=km linecode=CABBTG05_4_2_3
New line.ram2432672 phases=4 bus1=1795252.1.2.3.4 bus2=4002432672.1.2.3.4 length=0.017 units=km linecode=CABBTG07_4_3_4
New line.ram2432679 phases=3 bus1=1795266.1.2.4 bus2=4002432679.1.2.4 length=0.017 units=km linecode=CABBTG05_4_2_3
New line.ram2432749 phases=3 bus1=1795406.1.2.4 bus2=4002432749.1.2.4 length=0.017 units=km linecode=CABBTG05_4_2_3
New line.ram2432777 phases=4 bus1=1795462.1.2.3.4 bus2=4002432777.1.2.3.4 length=0.017 units=km linecode=CABBTG07_4_3_4
New line.ram2432784 phases=3 bus1=1795476.1.2.4 bus2=4002432784.1.2.4 length=0.017 units=km linecode=CABBTG05_4_2_3
New line.ram2432798 phases=3 bus1=1795490.1.2.4 bus2=4002432798.1.2.4 length=0.017 units=km linecode=CABBTG05_4_2_3
New line.ram2432805 phases=4 bus1=1795504.1.2.3.4 bus2=4002432805.1.2.3.4 length=0.017 units=km linecode=CABBTG07_4_3_4
New line.ram2432812 phases=3 bus1=1795518.1.2.4 bus2=4002432812.1.2.4 length=0.017 units=km linecode=CABBTG05_4_2_3
New line.ram2432826 phases=3 bus1=1795546.1.2.4 bus2=4002432826.1.2.4 length=0.017 units=km linecode=CABBTG05_4_2_3
New line.ram2432833 phases=3 bus1=1795546.1.2.4 bus2=4002432833.1.2.4 length=0.017 units=km linecode=CABBTG05_4_2_3
New line.ram2432840 phases=3 bus1=1795553.1.2.4 bus2=4002432840.1.2.4 length=0.017 units=km linecode=CABBTG05_4_2_3
New line.ram2432861 phases=3 bus1=1795644.1.2.4 bus2=4002432861.1.2.4 length=0.017 units=km linecode=CABBTG05_4_2_3
New line.ram2432868 phases=4 bus1=1795658.1.2.3.4 bus2=4002432868.1.2.3.4 length=0.017 units=km linecode=CABBTG07_4_3_4
New line.ram2432875 phases=3 bus1=1795672.1.2.4 bus2=4002432875.1.2.4 length=0.017 units=km linecode=CABBTG05_4_2_3
New line.ram2432882 phases=4 bus1=1795686.1.2.3.4 bus2=4002432882.1.2.3.4 length=0.017 units=km linecode=CABBTG07_4_3_4
New line.ram2432896 phases=3 bus1=1795714.1.2.4 bus2=4002432896.1.2.4 length=0.012 units=km linecode=CABBTG05_4_2_3
New line.ram2432903 phases=2 bus1=1795735.2.4 bus2=4002432903.2.4 length=0.017 units=km linecode=CABBTG01_4_1_2
New line.ram2432910 phases=2 bus1=1795735.2.4 bus2=4002432910.2.4 length=0.017 units=km linecode=CABBTG01_4_1_2
New line.ram2432924 phases=2 bus1=1795735.1.4 bus2=4002432924.1.4 length=0.017 units=km linecode=CABBTG01_4_1_2
New line.ram2432931 phases=3 bus1=1795742.1.2.4 bus2=4002432931.1.2.4 length=0.017 units=km linecode=CABBTG05_4_2_3
New line.ram2432938 phases=3 bus1=1795749.1.2.4 bus2=4002432938.1.2.4 length=0.017 units=km linecode=CABBTG05_4_2_3
New line.ram2432945 phases=2 bus1=1795749.2.4 bus2=4002432945.2.4 length=0.017 units=km linecode=CABBTG01_4_1_2
New line.ram2432952 phases=3 bus1=1795756.1.2.4 bus2=4002432952.1.2.4 length=0.017 units=km linecode=CABBTG05_4_2_3
New line.ram2432966 phases=3 bus1=1795798.1.2.4 bus2=4002432966.1.2.4 length=0.017 units=km linecode=CABBTG05_4_2_3
New line.ram2432973 phases=2 bus1=1795819.1.4 bus2=4002432973.1.4 length=0.017 units=km linecode=CABBTG01_4_1_2
New line.ram2432980 phases=3 bus1=1795826.1.2.4 bus2=4002432980.1.2.4 length=0.017 units=km linecode=CABBTG04_4_2_3
New line.ram2432987 phases=2 bus1=1795840.1.4 bus2=4002432987.1.4 length=0.017 units=km linecode=CABBTG01_4_1_2
New line.ram2432994 phases=2 bus1=1795840.1.4 bus2=4002432994.1.4 length=0.017 units=km linecode=CABBTG01_4_1_2
New line.ram2433001 phases=3 bus1=1795847.1.2.4 bus2=4002433001.1.2.4 length=0.017 units=km linecode=CABBTG05_4_2_3
New line.ram2433008 phases=3 bus1=1795861.1.2.4 bus2=4002433008.1.2.4 length=0.017 units=km linecode=CABBTG13_4_2_3
New line.ram2433015 phases=2 bus1=1795861.1.4 bus2=4002433015.1.4 length=0.017 units=km linecode=CABBT815_4_1_2
New line.ram2433022 phases=2 bus1=1795868.2.4 bus2=4002433022.2.4 length=0.03 units=km linecode=CABBT815_4_1_2
New line.ram2433029 phases=3 bus1=1795868.1.2.4 bus2=4002433029.1.2.4 length=0.03 units=km linecode=CABBT815_4_2_3
New line.ram2433134 phases=3 bus1=1796015.1.2.4 bus2=4002433134.1.2.4 length=0.017 units=km linecode=CABBTG05_4_2_3
New line.ram2433295 phases=3 bus1=1796246.1.2.4 bus2=4002433295.1.2.4 length=0.03 units=km linecode=CABBT807_4_2_3
New line.ram2433309 phases=3 bus1=1796274.1.2.4 bus2=4002433309.1.2.4 length=0.017 units=km linecode=CABBTG05_4_2_3
New line.ram2433330 phases=3 bus1=1796316.1.2.4 bus2=4002433330.1.2.4 length=0.017 units=km linecode=CABBTG05_4_2_3
New line.ram2433344 phases=3 bus1=1796344.1.2.4 bus2=4002433344.1.2.4 length=0.017 units=km linecode=CABBTG05_4_2_3
New line.ram2433421 phases=3 bus1=1796491.1.2.4 bus2=4002433421.1.2.4 length=0.017 units=km linecode=CABBTG05_4_2_3
New line.ram2433449 phases=3 bus1=1796547.1.2.4 bus2=4002433449.1.2.4 length=0.017 units=km linecode=CABBTG05_4_2_3
New line.ram2433470 phases=4 bus1=1796589.1.2.3.4 bus2=4002433470.1.2.3.4 length=0.017 units=km linecode=CABBTG07_4_3_4
New line.ram2433477 phases=3 bus1=1796603.1.2.4 bus2=4002433477.1.2.4 length=0.017 units=km linecode=CABBTG05_4_2_3
New line.ram2433505 phases=3 bus1=182112710.1.2.4 bus2=4002433505.1.2.4 length=0.017 units=km linecode=CABBTG05_4_2_3
New line.ram2433785 phases=3 bus1=1796904.1.2.4 bus2=4002433785.1.2.4 length=0.017 units=km linecode=CABBTG05_4_2_3
New line.ram2434261 phases=3 bus1=1797513.1.2.4 bus2=4002434261.1.2.4 length=0.017 units=km linecode=CABBTG05_4_2_3
New line.ram2434268 phases=3 bus1=1797527.1.2.4 bus2=4002434268.1.2.4 length=0.01 units=km linecode=CABBTG05_4_2_3
New line.ram2434296 phases=3 bus1=1797625.1.2.4 bus2=4002434296.1.2.4 length=0.017 units=km linecode=CABBTG05_4_2_3
New line.ram2434373 phases=3 bus1=1797737.1.2.4 bus2=4002434373.1.2.4 length=0.017 units=km linecode=CABBTG05_4_2_3
New line.ram2434387 phases=4 bus1=1797765.1.2.3.4 bus2=4002434387.1.2.3.4 length=0.017 units=km linecode=CABBTG07_4_3_4
New line.ram2434401 phases=3 bus1=1797793.1.2.4 bus2=4002434401.1.2.4 length=0.017 units=km linecode=CABBTG05_4_2_3
New line.ram2434408 phases=3 bus1=1797807.1.2.4 bus2=4002434408.1.2.4 length=0.017 units=km linecode=CABBTG05_4_2_3
New line.ram2434429 phases=3 bus1=1797849.1.2.4 bus2=4002434429.1.2.4 length=0.017 units=km linecode=CABBTG05_4_2_3
New line.ram2434436 phases=3 bus1=1797877.1.2.4 bus2=4002434436.1.2.4 length=0.017 units=km linecode=CABBTG05_4_2_3
New line.ram2434443 phases=4 bus1=1797891.1.2.3.4 bus2=4002434443.1.2.3.4 length=0.017 units=km linecode=CABBTG06_4_3_4
New line.ram2434471 phases=3 bus1=1797947.1.2.4 bus2=4002434471.1.2.4 length=0.017 units=km linecode=CABBTG05_4_2_3
New line.ram2434485 phases=4 bus1=1797975.1.2.3.4 bus2=4002434485.1.2.3.4 length=0.017 units=km linecode=CABBTG07_4_3_4
New line.ram2434562 phases=4 bus1=1798129.1.2.3.4 bus2=4002434562.1.2.3.4 length=0.017 units=km linecode=CABBTG07_4_3_4
New line.ram2434590 phases=3 bus1=1798185.1.2.4 bus2=4002434590.1.2.4 length=0.03 units=km linecode=CABBT807_4_2_3
New line.ram2434597 phases=3 bus1=1798213.1.2.4 bus2=4002434597.1.2.4 length=0.018 units=km linecode=CABBT808_4_2_3
New line.ram2434604 phases=3 bus1=1798227.1.2.4 bus2=4002434604.1.2.4 length=0.017 units=km linecode=CABBTG05_4_2_3
New line.ram2434611 phases=3 bus1=1798241.1.2.4 bus2=4002434611.1.2.4 length=0.017 units=km linecode=CABBTG05_4_2_3
New line.ram2434667 phases=3 bus1=1798353.1.2.4 bus2=4002434667.1.2.4 length=0.017 units=km linecode=CABBTG05_4_2_3
New line.ram2434702 phases=3 bus1=1798423.1.2.4 bus2=4002434702.1.2.4 length=0.017 units=km linecode=CABBTG05_4_2_3
New line.ram2434709 phases=3 bus1=1798437.1.2.4 bus2=4002434709.1.2.4 length=0.017 units=km linecode=CABBTG05_4_2_3
New line.ram2434730 phases=3 bus1=1798479.1.2.4 bus2=4002434730.1.2.4 length=0.017 units=km linecode=CABBTG05_4_2_3
New line.ram2434751 phases=3 bus1=1798507.1.2.4 bus2=4002434751.1.2.4 length=0.017 units=km linecode=CABBTG05_4_2_3
New line.ram2434800 phases=4 bus1=1798605.1.2.3.4 bus2=4002434800.1.2.3.4 length=0.017 units=km linecode=CABBTG07_4_3_4
New line.ram2434814 phases=3 bus1=1798633.1.2.4 bus2=4002434814.1.2.4 length=0.017 units=km linecode=CABBTG05_4_2_3
New line.ram2434842 phases=3 bus1=1798675.1.2.4 bus2=4002434842.1.2.4 length=0.017 units=km linecode=CABBTG05_4_2_3
New line.ram2434856 phases=3 bus1=1798703.1.2.4 bus2=4002434856.1.2.4 length=0.017 units=km linecode=CABBTG05_4_2_3
New line.ram2434926 phases=3 bus1=1798815.1.2.4 bus2=4002434926.1.2.4 length=0.017 units=km linecode=CABBTG05_4_2_3
New line.ram2434933 phases=3 bus1=1798829.1.2.4 bus2=4002434933.1.2.4 length=0.017 units=km linecode=CABBTG05_4_2_3
New line.ram2434968 phases=4 bus1=1798885.1.2.3.4 bus2=4002434968.1.2.3.4 length=0.017 units=km linecode=CABBTG07_4_3_4
New line.ram2435087 phases=3 bus1=1799081.1.2.4 bus2=4002435087.1.2.4 length=0.017 units=km linecode=CABBTG05_4_2_3
New line.ram2435094 phases=4 bus1=1799095.1.2.3.4 bus2=4002435094.1.2.3.4 length=0.017 units=km linecode=CABBTG07_4_3_4
New line.ram2435108 phases=3 bus1=1799123.1.2.4 bus2=4002435108.1.2.4 length=0.017 units=km linecode=CABBTG05_4_2_3
New line.ram2435185 phases=4 bus1=1799277.1.2.3.4 bus2=4002435185.1.2.3.4 length=0.017 units=km linecode=CABBTG07_4_3_4
New line.ram2435192 phases=4 bus1=1799291.1.2.3.4 bus2=4002435192.1.2.3.4 length=0.017 units=km linecode=CABBTG07_4_3_4
New line.ram2435248 phases=4 bus1=1799354.1.2.3.4 bus2=4002435248.1.2.3.4 length=0.017 units=km linecode=CABBTG07_4_3_4
New line.ram2435262 phases=3 bus1=1799382.1.2.4 bus2=4002435262.1.2.4 length=0.017 units=km linecode=CABBTG05_4_2_3
New line.ram2435346 phases=3 bus1=1799487.1.2.4 bus2=4002435346.1.2.4 length=0.017 units=km linecode=CABBTG05_4_2_3
New line.ram2435787 phases=3 bus1=1799935.1.2.4 bus2=4002435787.1.2.4 length=0.017 units=km linecode=CABBTG05_4_2_3
New line.ram2435983 phases=3 bus1=1800229.1.2.4 bus2=4002435983.1.2.4 length=0.017 units=km linecode=CABBTG05_4_2_3
New line.ram2435990 phases=4 bus1=1800243.1.2.3.4 bus2=4002435990.1.2.3.4 length=0.017 units=km linecode=CABBTG07_4_3_4
New line.ram2436438 phases=4 bus1=1800796.1.2.3.4 bus2=4002436438.1.2.3.4 length=0.017 units=km linecode=CABBTG07_4_3_4
New line.ram2437404 phases=3 bus1=1802014.1.2.4 bus2=4002437404.1.2.4 length=0.017 units=km linecode=CABBTG05_4_2_3
New line.ram2437481 phases=4 bus1=1802105.1.2.3.4 bus2=4002437481.1.2.3.4 length=0.017 units=km linecode=CABBTG07_4_3_4
New line.ram2437705 phases=3 bus1=1802399.1.2.4 bus2=4002437705.1.2.4 length=0.017 units=km linecode=CABBTG05_4_2_3
New line.ram2437950 phases=3 bus1=1802812.1.2.4 bus2=4002437950.1.2.4 length=0.017 units=km linecode=CABBTG05_4_2_3
New line.ram2438482 phases=4 bus1=1803365.1.2.3.4 bus2=4002438482.1.2.3.4 length=0.017 units=km linecode=CABBTG07_4_3_4
New line.ram2438727 phases=3 bus1=1803638.1.2.4 bus2=4002438727.1.2.4 length=0.017 units=km linecode=CABBTG05_4_2_3
New line.ram2438825 phases=3 bus1=1803806.1.2.4 bus2=4002438825.1.2.4 length=0.017 units=km linecode=CABBTG05_4_2_3
New line.ram2438930 phases=3 bus1=1803883.1.2.4 bus2=4002438930.1.2.4 length=0.017 units=km linecode=CABBTG05_4_2_3
New line.ram2439021 phases=3 bus1=1803995.1.2.4 bus2=4002439021.1.2.4 length=0.017 units=km linecode=CABBTG05_4_2_3
New line.ram2439028 phases=3 bus1=1804009.1.2.4 bus2=4002439028.1.2.4 length=0.017 units=km linecode=CABBTG05_4_2_3
New line.ram2439525 phases=3 bus1=1804485.1.2.4 bus2=4002439525.1.2.4 length=0.017 units=km linecode=CABBTG05_4_2_3
New line.ram2440099 phases=4 bus1=1805108.1.2.3.4 bus2=4002440099.1.2.3.4 length=0.017 units=km linecode=CABBTG07_4_3_4
New line.ram2441079 phases=4 bus1=1806102.1.2.3.4 bus2=4002441079.1.2.3.4 length=0.017 units=km linecode=CABBTG07_4_3_4
New line.ram2441436 phases=3 bus1=1806480.1.2.4 bus2=4002441436.1.2.4 length=0.017 units=km linecode=CABBTG05_4_2_3
New line.ram2441464 phases=3 bus1=1806536.1.2.4 bus2=4002441464.1.2.4 length=0.017 units=km linecode=CABBTG05_4_2_3
New line.ram2441534 phases=3 bus1=1806676.1.2.4 bus2=4002441534.1.2.4 length=0.017 units=km linecode=CABBTG05_4_2_3
New line.ram2441611 phases=3 bus1=1806830.1.2.4 bus2=4002441611.1.2.4 length=0.017 units=km linecode=CABBTG05_4_2_3
New line.ram2441632 phases=3 bus1=1806872.1.2.4 bus2=4002441632.1.2.4 length=0.017 units=km linecode=CABBTG05_4_2_3
New line.ram2441905 phases=3 bus1=1807278.1.2.4 bus2=4002441905.1.2.4 length=0.017 units=km linecode=CABBTG05_4_2_3
New line.ram2442066 phases=3 bus1=1807502.1.2.4 bus2=4002442066.1.2.4 length=0.017 units=km linecode=CABBTG05_4_2_3
New line.ram2442262 phases=4 bus1=1807915.1.2.3.4 bus2=4002442262.1.2.3.4 length=0.017 units=km linecode=CABBTG07_4_3_4
New line.ram2442423 phases=4 bus1=1808251.1.2.3.4 bus2=4002442423.1.2.3.4 length=0.017 units=km linecode=CABBTG09_4_3_4
New line.ram2442444 phases=3 bus1=1808783.1.2.4 bus2=4002442444.1.2.4 length=0.017 units=km linecode=CABBTG05_4_2_3
New line.ram2442500 phases=3 bus1=1808349.1.2.4 bus2=4002442500.1.2.4 length=0.017 units=km linecode=CABBTG05_4_2_3
New line.ram2442682 phases=3 bus1=1808741.1.2.4 bus2=4002442682.1.2.4 length=0.017 units=km linecode=CABBTG05_4_2_3
New line.ram2442703 phases=3 bus1=1808293.1.2.4 bus2=4002442703.1.2.4 length=0.017 units=km linecode=CABBTG05_4_2_3
New line.ram2442766 phases=3 bus1=1808867.1.2.4 bus2=4002442766.1.2.4 length=0.017 units=km linecode=CABBTG05_4_2_3
New line.ram2443095 phases=3 bus1=1809574.1.2.4 bus2=4002443095.1.2.4 length=0.017 units=km linecode=CABBTG05_4_2_3
New line.ram2443592 phases=3 bus1=1810393.1.2.4 bus2=4002443592.1.2.4 length=0.017 units=km linecode=CABBTG05_4_2_3
New line.ram2443690 phases=4 bus1=177161882.1.2.3.4 bus2=4002443690.1.2.3.4 length=0.017 units=km linecode=CABBTG07_4_3_4
New line.ram2445587 phases=3 bus1=1811709.1.2.4 bus2=4002445587.1.2.4 length=0.017 units=km linecode=CABBTG05_4_2_3
New line.ram2450935 phases=3 bus1=1813816.1.2.4 bus2=4002450935.1.2.4 length=0.017 units=km linecode=CABBTG05_4_2_3
New line.ram2456402 phases=3 bus1=1816035.1.2.4 bus2=4002456402.1.2.4 length=0.017 units=km linecode=CABBTG05_4_2_3
New line.ram2465089 phases=3 bus1=1818940.1.2.4 bus2=4002465089.1.2.4 length=0.017 units=km linecode=CABBTG05_4_2_3
New line.ram2474231 phases=3 bus1=179162907.1.2.4 bus2=4002474231.1.2.4 length=0.017 units=km linecode=CABBTG05_4_2_3
New line.ram3238099 phases=3 bus1=2247116.1.2.4 bus2=4003238099.1.2.4 length=0.017 units=km linecode=CABBTG05_4_2_3
New line.ram3238127 phases=4 bus1=2247172.1.2.3.4 bus2=4003238127.1.2.3.4 length=0.017 units=km linecode=CABBTG07_4_3_4
New line.ram3238323 phases=4 bus1=176814695.1.2.3.4 bus2=4003238323.1.2.3.4 length=0.017 units=km linecode=CABBTG07_4_3_4
New line.ram3238393 phases=3 bus1=2247760.1.2.4 bus2=4003238393.1.2.4 length=0.017 units=km linecode=CABBTG05_4_2_3
New line.ram3238400 phases=3 bus1=2247774.1.2.4 bus2=4003238400.1.2.4 length=0.017 units=km linecode=CABBTG05_4_2_3
New line.ram3238526 phases=3 bus1=2248026.1.2.4 bus2=4003238526.1.2.4 length=0.017 units=km linecode=CABBTG05_4_2_3
New line.ram3238946 phases=3 bus1=2248712.1.2.4 bus2=4003238946.1.2.4 length=0.017 units=km linecode=CABBTG05_4_2_3
New line.ram3238953 phases=3 bus1=2248726.1.2.4 bus2=4003238953.1.2.4 length=0.017 units=km linecode=CABBTG05_4_2_3
New line.ram3238960 phases=3 bus1=2248733.1.2.4 bus2=4003238960.1.2.4 length=0.017 units=km linecode=CABBTG05_4_2_3
New line.ram3238967 phases=3 bus1=2248775.1.2.4 bus2=4003238967.1.2.4 length=0.017 units=km linecode=CABBTG05_4_2_3
New line.ram3238974 phases=3 bus1=2248775.1.2.4 bus2=4003238974.1.2.4 length=0.017 units=km linecode=CABBTG05_4_2_3
New line.ram3238981 phases=3 bus1=2248782.1.2.4 bus2=4003238981.1.2.4 length=0.017 units=km linecode=CABBTG05_4_2_3
New line.ram3238995 phases=3 bus1=2248831.1.2.4 bus2=4003238995.1.2.4 length=0.017 units=km linecode=CABBTG05_4_2_3
New line.ram3239002 phases=2 bus1=2248838.2.4 bus2=4003239002.2.4 length=0.017 units=km linecode=CABBTG01_4_1_2
New line.ram3239009 phases=3 bus1=2248852.1.2.4 bus2=4003239009.1.2.4 length=0.017 units=km linecode=CABBTG05_4_2_3
New line.ram3239016 phases=3 bus1=2248859.1.2.4 bus2=4003239016.1.2.4 length=0.017 units=km linecode=CABBTG05_4_2_3
New line.ram3239023 phases=3 bus1=2248859.1.2.4 bus2=4003239023.1.2.4 length=0.017 units=km linecode=CABBTG05_4_2_3
New line.ram3239030 phases=3 bus1=2248873.1.2.4 bus2=4003239030.1.2.4 length=0.017 units=km linecode=CABBTG05_4_2_3
New line.ram3239037 phases=3 bus1=2248873.1.2.4 bus2=4003239037.1.2.4 length=0.017 units=km linecode=CABBTG05_4_2_3
New line.ram3239044 phases=3 bus1=2248880.1.2.4 bus2=4003239044.1.2.4 length=0.017 units=km linecode=CABBTG05_4_2_3
New line.ram3239051 phases=3 bus1=2248894.1.2.4 bus2=4003239051.1.2.4 length=0.017 units=km linecode=CABBTG05_4_2_3
New line.ram3239058 phases=3 bus1=2248901.1.2.4 bus2=4003239058.1.2.4 length=0.017 units=km linecode=CABBTG05_4_2_3
New line.ram3239065 phases=3 bus1=2248901.1.2.4 bus2=4003239065.1.2.4 length=0.017 units=km linecode=CABBTG05_4_2_3
New line.ram3239072 phases=3 bus1=2248915.1.2.4 bus2=4003239072.1.2.4 length=0.017 units=km linecode=CABBTG05_4_2_3
New line.ram3239079 phases=3 bus1=2248922.1.2.4 bus2=4003239079.1.2.4 length=0.017 units=km linecode=CABBTG05_4_2_3
New line.ram3239086 phases=3 bus1=2248922.1.2.4 bus2=4003239086.1.2.4 length=0.017 units=km linecode=CABBTG05_4_2_3
New line.ram3239093 phases=3 bus1=2248929.1.2.4 bus2=4003239093.1.2.4 length=0.017 units=km linecode=CABBTG05_4_2_3
New line.ram3239107 phases=3 bus1=2248964.1.2.4 bus2=4003239107.1.2.4 length=0.017 units=km linecode=CABBTG05_4_2_3
New line.ram3239114 phases=3 bus1=2248971.1.2.4 bus2=4003239114.1.2.4 length=0.017 units=km linecode=CABBTG05_4_2_3
New line.ram3239121 phases=3 bus1=2248971.1.2.4 bus2=4003239121.1.2.4 length=0.017 units=km linecode=CABBTG05_4_2_3
New line.ram3239128 phases=3 bus1=2248971.1.2.4 bus2=4003239128.1.2.4 length=0.017 units=km linecode=CABBTG05_4_2_3
New line.ram3239135 phases=3 bus1=2248971.1.2.4 bus2=4003239135.1.2.4 length=0.017 units=km linecode=CABBTG05_4_2_3
New line.ram3239142 phases=3 bus1=2248971.1.2.4 bus2=4003239142.1.2.4 length=0.017 units=km linecode=CABBTG05_4_2_3
New line.ram3239149 phases=3 bus1=2248992.1.2.4 bus2=4003239149.1.2.4 length=0.017 units=km linecode=CABBTG05_4_2_3
New line.ram3239156 phases=3 bus1=2248992.1.2.4 bus2=4003239156.1.2.4 length=0.017 units=km linecode=CABBTG05_4_2_3
New line.ram3239163 phases=3 bus1=2248999.1.2.4 bus2=4003239163.1.2.4 length=0.017 units=km linecode=CABBTG05_4_2_3
New line.ram3239170 phases=3 bus1=2249034.1.2.4 bus2=4003239170.1.2.4 length=0.017 units=km linecode=CABBTG05_4_2_3
New line.ram3239177 phases=3 bus1=2249034.1.2.4 bus2=4003239177.1.2.4 length=0.017 units=km linecode=CABBTG05_4_2_3
New line.ram3239184 phases=3 bus1=2249041.1.2.4 bus2=4003239184.1.2.4 length=0.017 units=km linecode=CABBTG05_4_2_3
New line.ram3239191 phases=3 bus1=2249048.1.2.4 bus2=4003239191.1.2.4 length=0.017 units=km linecode=CABBTG05_4_2_3
New line.ram3239198 phases=3 bus1=2249048.1.2.4 bus2=4003239198.1.2.4 length=0.017 units=km linecode=CABBTG05_4_2_3
New line.ram3239205 phases=3 bus1=2249055.1.2.4 bus2=4003239205.1.2.4 length=0.017 units=km linecode=CABBTG05_4_2_3
New line.ram3239219 phases=3 bus1=2249062.1.2.4 bus2=4003239219.1.2.4 length=0.017 units=km linecode=CABBTG05_4_2_3
New line.ram3239226 phases=3 bus1=2249062.1.2.4 bus2=4003239226.1.2.4 length=0.017 units=km linecode=CABBTG05_4_2_3
New line.ram3239240 phases=3 bus1=2249090.1.2.4 bus2=4003239240.1.2.4 length=0.017 units=km linecode=CABBTG05_4_2_3
New line.ram3239247 phases=3 bus1=2249090.1.2.4 bus2=4003239247.1.2.4 length=0.017 units=km linecode=CABBTG05_4_2_3
New line.ram3239254 phases=3 bus1=2249097.1.2.4 bus2=4003239254.1.2.4 length=0.017 units=km linecode=CABBTG05_4_2_3
New line.ram3239261 phases=3 bus1=2249097.1.2.4 bus2=4003239261.1.2.4 length=0.017 units=km linecode=CABBTG05_4_2_3
New line.ram3239268 phases=3 bus1=2249097.1.2.4 bus2=4003239268.1.2.4 length=0.017 units=km linecode=CABBTG05_4_2_3
New line.ram3239275 phases=3 bus1=2249111.1.2.4 bus2=4003239275.1.2.4 length=0.017 units=km linecode=CABBTG05_4_2_3
New line.ram3239282 phases=3 bus1=2249111.1.2.4 bus2=4003239282.1.2.4 length=0.017 units=km linecode=CABBTG05_4_2_3
New line.ram3239289 phases=3 bus1=2249139.1.2.4 bus2=4003239289.1.2.4 length=0.017 units=km linecode=CABBTG05_4_2_3
New line.ram3239296 phases=3 bus1=2249146.1.2.4 bus2=4003239296.1.2.4 length=0.017 units=km linecode=CABBTG05_4_2_3
New line.ram3239303 phases=3 bus1=2249153.1.2.4 bus2=4003239303.1.2.4 length=0.017 units=km linecode=CABBTG05_4_2_3
New line.ram3239310 phases=3 bus1=2249153.1.2.4 bus2=4003239310.1.2.4 length=0.02 units=km linecode=CABBTG05_4_2_3
New line.ram3239317 phases=3 bus1=2249174.1.2.4 bus2=4003239317.1.2.4 length=0.017 units=km linecode=CABBTG05_4_2_3
New line.ram3239324 phases=4 bus1=2249202.1.2.3.4 bus2=4003239324.1.2.3.4 length=0.017 units=km linecode=CABBTG07_4_3_4
New line.ram3239331 phases=3 bus1=2249174.3.1.4 bus2=4003239331.3.1.4 length=0.017 units=km linecode=CABBTG05_4_2_3
New line.ram3239338 phases=4 bus1=2249181.1.2.3.4 bus2=4003239338.1.2.3.4 length=0.017 units=km linecode=CABBTG07_4_3_4
New line.ram3239345 phases=3 bus1=2249188.1.2.4 bus2=4003239345.1.2.4 length=0.017 units=km linecode=CABBTG05_4_2_3
New line.ram3239352 phases=3 bus1=2249202.1.2.4 bus2=4003239352.1.2.4 length=0.017 units=km linecode=CABBTG05_4_2_3
New line.ram3239359 phases=3 bus1=2249279.1.2.4 bus2=4003239359.1.2.4 length=0.017 units=km linecode=CABBTG05_4_2_3
New line.ram3239373 phases=3 bus1=2249244.1.2.4 bus2=4003239373.1.2.4 length=0.017 units=km linecode=CABBTG05_4_2_3
New line.ram3239380 phases=3 bus1=2249244.2.3.4 bus2=4003239380.2.3.4 length=0.017 units=km linecode=CABBTG05_4_2_3
New line.ram3239394 phases=3 bus1=2249265.1.2.4 bus2=4003239394.1.2.4 length=0.017 units=km linecode=CABBTG05_4_2_3