New line.bt1525143 phases=3 bus1=1792375.1.2.4 bus2=1792382.1.2.4 length=0.0005 units=km linecode=BT307_BT307_7_2_1_3
New line.bt1525458 phases=3 bus1=1792991.1.2.4 bus2=1792998.1.2.4 length=0.0005 units=km linecode=BT307_BT307_7_2_1_3
New line.bt1525521 phases=3 bus1=1793117.1.2.4 bus2=1793124.1.2.4 length=0.0005 units=km linecode=BT307_BT307_7_2_1_3
New line.bt1525689 phases=3 bus1=1793439.1.2.4 bus2=1793446.1.2.4 length=0.0005 units=km linecode=BT309_BT309_7_2_1_3
New line.bt1525703 phases=3 bus1=1793467.1.2.4 bus2=1793474.1.2.4 length=0.0005 units=km linecode=BT307_BT307_7_2_1_3
New line.bt1525794 phases=3 bus1=1793635.1.2.4 bus2=1793642.1.2.4 length=0.0005 units=km linecode=BT307_BT307_7_2_1_3
New line.bt1525801 phases=3 bus1=1793649.1.2.4 bus2=1793656.1.2.4 length=0.0005 units=km linecode=BT307_BT307_7_2_1_3
New line.bt1525815 phases=3 bus1=1793677.1.2.4 bus2=1793684.1.2.4 length=0.0005 units=km linecode=BT307_BT307_7_2_1_3
New line.bt1525822 phases=3 bus1=1793691.1.2.4 bus2=1793698.1.2.4 length=0.0005 units=km linecode=BT307_BT307_7_2_1_3
New line.bt1525934 phases=4 bus1=1793901.1.2.3.4 bus2=1793908.1.2.3.4 length=0.0005 units=km linecode=BT307_BT307_7_3_1_4
New line.bt1525962 phases=3 bus1=1793957.1.2.4 bus2=1793964.1.2.4 length=0.0005 units=km linecode=BT307_BT307_7_2_1_3
New line.bt1525990 phases=3 bus1=1794013.1.2.4 bus2=1794020.1.2.4 length=0.0005 units=km linecode=BT307_BT307_7_2_1_3
New line.bt1526081 phases=3 bus1=1794167.1.2.4 bus2=1794174.1.2.4 length=0.0005 units=km linecode=BT307_BT307_7_2_1_3
New line.bt1526102 phases=3 bus1=1794209.1.2.4 bus2=1794216.1.2.4 length=0.0005 units=km linecode=BT307_BT307_7_2_1_3
New line.bt1526123 phases=3 bus1=1794251.1.2.4 bus2=1794258.1.2.4 length=0.0005 units=km linecode=BT508_BT508_7_2_1_3
New line.bt1526151 phases=4 bus1=1794307.1.2.3.4 bus2=1794314.1.2.3.4 length=0.0005 units=km linecode=BT307_BT307_7_3_1_4
New line.bt1526165 phases=3 bus1=1794335.1.2.4 bus2=1794342.1.2.4 length=0.0005 units=km linecode=BT307_BT307_7_2_1_3
New line.bt1526221 phases=3 bus1=1794447.1.2.4 bus2=1794454.1.2.4 length=0.0005 units=km linecode=BT521_BT521_7_2_1_3
New line.bt1526235 phases=3 bus1=1794461.1.2.4 bus2=1794468.1.2.4 length=0.0005 units=km linecode=BT508_BT508_7_2_1_3
New line.bt1526263 phases=3 bus1=1794517.1.2.4 bus2=1794524.1.2.4 length=0.0005 units=km linecode=BT307_BT307_7_2_1_3
New line.bt1526291 phases=3 bus1=1794573.1.2.4 bus2=1794580.1.2.4 length=0.0005 units=km linecode=BT513_BT513_7_2_1_3
New line.bt1526305 phases=3 bus1=1794587.1.2.4 bus2=1794594.1.2.4 length=0.0005 units=km linecode=BT508_BT508_7_2_1_3
New line.bt1526333 phases=3 bus1=1794629.1.2.4 bus2=1794636.1.2.4 length=0.0005 units=km linecode=BT307_BT307_7_2_1_3
New line.bt1526340 phases=3 bus1=1794643.1.2.4 bus2=1794650.1.2.4 length=0.0005 units=km linecode=BT307_BT307_7_2_1_3
New line.bt1526347 phases=3 bus1=1794657.1.2.4 bus2=1794664.1.2.4 length=0.0005 units=km linecode=BT307_BT307_7_2_1_3
New line.bt1526354 phases=3 bus1=1794671.1.2.4 bus2=1794678.1.2.4 length=0.0005 units=km linecode=BT307_BT307_7_2_1_3
New line.bt1526361 phases=3 bus1=1794685.1.2.4 bus2=1794692.1.2.4 length=0.0005 units=km linecode=BT307_BT307_7_2_1_3
New line.bt1526382 phases=3 bus1=1794727.1.2.4 bus2=1794734.1.2.4 length=0.0005 units=km linecode=BT307_BT307_7_2_1_3
New line.bt1526389 phases=3 bus1=1794741.1.2.4 bus2=1794748.1.2.4 length=0.0005 units=km linecode=BT307_BT307_7_2_1_3
New line.bt1526445 phases=3 bus1=1794825.1.2.4 bus2=1794832.1.2.4 length=0.0005 units=km linecode=BT309_BT309_7_2_1_3
New line.bt1526459 phases=3 bus1=1794853.1.2.4 bus2=1794860.1.2.4 length=0.0005 units=km linecode=BT307_BT307_7_2_1_3
New line.bt1526473 phases=4 bus1=1794881.1.2.3.4 bus2=1794888.1.2.3.4 length=0.0005 units=km linecode=BT518_BT518_7_3_1_4
New line.bt1526487 phases=3 bus1=1794909.1.2.4 bus2=1794916.1.2.4 length=0.0005 units=km linecode=BT513_BT513_7_2_1_3
New line.bt1526564 phases=3 bus1=1795035.1.2.4 bus2=1795042.1.2.4 length=0.0005 units=km linecode=BT307_BT307_7_2_1_3
New line.bt1526578 phases=3 bus1=1795063.1.2.4 bus2=1795070.1.2.4 length=0.0005 units=km linecode=BT307_BT307_7_2_1_3
New line.bt1526592 phases=3 bus1=1795091.1.2.4 bus2=1795098.1.2.4 length=0.0005 units=km linecode=BT513_BT513_7_2_1_3
New line.bt1526606 phases=3 bus1=1795119.1.2.4 bus2=1795126.1.2.4 length=0.0005 units=km linecode=BT307_BT307_7_2_1_3
New line.bt1526613 phases=4 bus1=1795133.1.2.3.4 bus2=1795140.1.2.3.4 length=0.0005 units=km linecode=BT307_BT307_7_3_1_4
New line.bt1526627 phases=4 bus1=1795161.1.2.3.4 bus2=1795168.1.2.3.4 length=0.0005 units=km linecode=BT509_BT509_7_3_1_4
New line.bt1526641 phases=3 bus1=1795189.1.2.4 bus2=1795196.1.2.4 length=0.0005 units=km linecode=BT307_BT307_7_2_1_3
New line.bt1526662 phases=3 bus1=1795231.1.2.4 bus2=1795238.1.2.4 length=0.0005 units=km linecode=BT307_BT307_7_2_1_3
New line.bt1526669 phases=4 bus1=1795245.1.2.3.4 bus2=1795252.1.2.3.4 length=0.0005 units=km linecode=BT307_BT307_7_3_1_4
New line.bt1526676 phases=3 bus1=1795259.1.2.4 bus2=1795266.1.2.4 length=0.0005 units=km linecode=BT307_BT307_7_2_1_3
New line.bt1526753 phases=3 bus1=1795399.1.2.4 bus2=1795406.1.2.4 length=0.0005 units=km linecode=BT513_BT513_7_2_1_3
New line.bt1526781 phases=4 bus1=1795455.1.2.3.4 bus2=1795462.1.2.3.4 length=0.0005 units=km linecode=BT307_BT307_7_3_1_4
New line.bt1526788 phases=3 bus1=1795469.1.2.4 bus2=1795476.1.2.4 length=0.0005 units=km linecode=BT307_BT307_7_2_1_3
New line.bt1526795 phases=3 bus1=1795483.1.2.4 bus2=1795490.1.2.4 length=0.0005 units=km linecode=BT307_BT307_7_2_1_3
New line.bt1526802 phases=4 bus1=1795497.1.2.3.4 bus2=1795504.1.2.3.4 length=0.0005 units=km linecode=BT513_BT513_7_3_1_4
New line.bt1526816 phases=3 bus1=1795511.1.2.4 bus2=1795518.1.2.4 length=0.0005 units=km linecode=BT513_BT513_7_2_1_3
New line.bt1526830 phases=3 bus1=1795553.1.2.4 bus2=1795546.1.2.4 length=0.030399000000000002 units=km linecode=BT108_BT108_7_2_1_3
New line.bt1526837 phases=3 bus1=1795560.1.2.4 bus2=1795553.1.2.4 length=0.029532 units=km linecode=BT108_BT108_7_2_1_3
New line.bt1526844 phases=3 bus1=1795567.1.2.4 bus2=1795560.1.2.4 length=0.033998 units=km linecode=BT108_BT108_7_2_1_3
New line.bt1526851 phases=3 bus1=1795539.1.2.4 bus2=1795567.1.2.4 length=0.0005 units=km linecode=BT507_BT507_7_2_1_3
New line.bt1526858 phases=3 bus1=1795567.1.2.4 bus2=1795574.1.2.4 length=0.026388 units=km linecode=BT108_BT108_7_2_1_3
New line.bt1526865 phases=3 bus1=1795574.1.2.4 bus2=1795581.1.2.4 length=0.028986 units=km linecode=BT108_BT108_7_2_1_3
New line.bt1526872 phases=3 bus1=1795581.1.2.4 bus2=1795588.1.2.4 length=0.029684000000000002 units=km linecode=BT108_BT108_7_2_1_3
New line.bt1526879 phases=3 bus1=1795588.1.2.4 bus2=1795595.1.2.4 length=0.031098 units=km linecode=BT108_BT108_7_2_1_3
New line.bt1526886 phases=3 bus1=1795595.1.2.4 bus2=1795602.1.2.4 length=0.029397 units=km linecode=BT108_BT108_7_2_1_3
New line.bt1526907 phases=3 bus1=1795637.1.2.4 bus2=1795644.1.2.4 length=0.0005 units=km linecode=BT307_BT307_7_2_1_3
New line.bt1526914 phases=4 bus1=1795651.1.2.3.4 bus2=1795658.1.2.3.4 length=0.0005 units=km linecode=BT521_BT521_7_3_1_4
New line.bt1526921 phases=3 bus1=1795665.1.2.4 bus2=1795672.1.2.4 length=0.0005 units=km linecode=BT307_BT307_7_2_1_3
New line.bt1526935 phases=4 bus1=1795679.1.2.3.4 bus2=1795686.1.2.3.4 length=0.0005 units=km linecode=BT309_BT309_7_3_1_4
New line.bt1526949 phases=3 bus1=1795714.1.2.4 bus2=1795721.1.2.4 length=0.042991 units=km linecode=BT107_BT107_7_2_1_3
New line.bt1526970 phases=3 bus1=1795728.1.2.4 bus2=1795714.1.2.4 length=0.038878 units=km linecode=BT108_BT107_7_2_1_3
New line.bt1526977 phases=3 bus1=1795735.1.2.4 bus2=1795728.1.2.4 length=0.03686 units=km linecode=BT108_BT107_7_2_1_3
New line.bt1526984 phases=3 bus1=1795707.1.2.4 bus2=1795735.1.2.4 length=0.0005 units=km linecode=BT507_BT507_7_2_1_3
New line.bt1526991 phases=3 bus1=1795735.1.2.4 bus2=1795742.1.2.4 length=0.038060000000000004 units=km linecode=BT108_BT107_7_2_1_3
New line.bt1526998 phases=3 bus1=1795742.1.2.4 bus2=1795749.1.2.4 length=0.03686 units=km linecode=BT108_BT107_7_2_1_3
New line.bt1527005 phases=3 bus1=1795749.1.2.4 bus2=1795756.1.2.4 length=0.037090000000000005 units=km linecode=BT108_BT107_7_2_1_3
New line.bt1527012 phases=3 bus1=2330087.1.2.4 bus2=2330115.1.2.4 length=0.031033 units=km linecode=BT808_BT808_4_2_3_3
New line.bt1527040 phases=3 bus1=1795791.1.2.4 bus2=1795798.1.2.4 length=0.0005 units=km linecode=BT307_BT307_7_2_1_3
New line.bt1527054 phases=3 bus1=1795819.1.2.4 bus2=1795812.1.2.4 length=0.038452 units=km linecode=BT108_BT107_7_2_1_3
New line.bt1527061 phases=3 bus1=1795819.1.2.4 bus2=1795833.1.2.4 length=0.037994999999999994 units=km linecode=BT107_BT106_7_2_1_3
New line.bt1527068 phases=3 bus1=1795826.1.2.4 bus2=1795819.1.2.4 length=0.043025 units=km linecode=BT108_BT107_7_2_1_3
New line.bt1527075 phases=3 bus1=1795840.1.2.4 bus2=1795826.1.2.4 length=0.04186 units=km linecode=BT107_BT108_7_2_1_3
New line.bt1527082 phases=3 bus1=1795805.1.2.4 bus2=1795840.1.2.4 length=0.0005 units=km linecode=BT507_BT507_7_2_1_3
New line.bt1527089 phases=3 bus1=1795840.1.2.4 bus2=1795847.1.2.4 length=0.04408 units=km linecode=BT108_BT107_7_2_1_3
New line.bt1527096 phases=3 bus1=1795847.1.2.4 bus2=1795854.1.2.4 length=0.021179 units=km linecode=BT107_BT107_7_2_1_3
New line.bt1527103 phases=3 bus1=1795847.1.2.4 bus2=1795861.1.2.4 length=0.044397 units=km linecode=BT108_BT107_7_2_1_3
New line.bt1527110 phases=3 bus1=1795854.1.2.4 bus2=1795875.1.2.4 length=0.035338 units=km linecode=BT107_BT107_7_2_1_3
New line.bt1527117 phases=3 bus1=1795854.1.2.4 bus2=1795882.1.2.4 length=0.029106 units=km linecode=BT808_BT808_4_2_3_3
New line.bt1527124 phases=3 bus1=1795861.1.2.4 bus2=1795868.1.2.4 length=0.040797 units=km linecode=BT108_BT107_7_2_1_3
New line.bt1527138 phases=3 bus1=1795882.1.2.4 bus2=1795889.1.2.4 length=0.030069 units=km linecode=BT808_BT808_4_2_3_3
New line.bt1527145 phases=3 bus1=1795889.1.2.4 bus2=1795896.1.2.4 length=0.029397 units=km linecode=BT808_BT808_4_2_3_3
New line.bt1527166 phases=3 bus1=136212311.1.2.4 bus2=1795959.1.2.4 length=0.042039 units=km linecode=BT107_BT106_7_2_1_3
New line.bt1527173 phases=3 bus1=1795938.1.2.4 bus2=3491366.1.2.4 length=0.042699 units=km linecode=BT808_BT808_4_2_3_3
New line.bt1527180 phases=3 bus1=1795945.1.2.4 bus2=1795938.1.2.4 length=0.032741 units=km linecode=BT807_BT807_4_2_3_3
New line.bt1527187 phases=3 bus1=1795931.1.2.4 bus2=1795945.1.2.4 length=0.0005 units=km linecode=BT513_BT513_7_2_1_3
New line.bt1527194 phases=3 bus1=1795945.1.2.4 bus2=1795952.1.2.4 length=0.031049 units=km linecode=BT807_BT807_4_2_3_3
New line.bt1527236 phases=3 bus1=1796008.1.2.4 bus2=1796015.1.2.4 length=0.0005 units=km linecode=BT307_BT307_7_2_1_3
New line.bt1527243 phases=3 bus1=1796036.1.2.4 bus2=1796029.1.2.4 length=0.035338 units=km linecode=BT108_BT108_7_2_1_3
New line.bt1527250 phases=3 bus1=1796043.1.2.4 bus2=1796036.1.2.4 length=0.036328000000000006 units=km linecode=BT108_BT108_7_2_1_3
New line.bt1527257 phases=3 bus1=1796057.1.2.4 bus2=1796050.1.2.4 length=0.035676 units=km linecode=BT801_BT801_4_2_3_3
New line.bt1527264 phases=3 bus1=1796064.1.2.4 bus2=1796043.1.2.4 length=0.034218000000000005 units=km linecode=BT108_BT108_7_2_1_3
New line.bt1527271 phases=3 bus1=1796064.1.2.4 bus2=1796057.1.2.4 length=0.034508000000000004 units=km linecode=BT801_BT801_4_2_3_3
New line.bt1527278 phases=3 bus1=1796064.1.2.4 bus2=1796071.1.2.4 length=0.033718000000000005 units=km linecode=BT801_BT801_4_2_3_3
New line.bt1527285 phases=3 bus1=1796071.1.2.4 bus2=1796078.1.2.4 length=0.033525 units=km linecode=BT801_BT801_4_2_3_3
New line.bt1527292 phases=3 bus1=1796085.1.2.4 bus2=1796064.1.2.4 length=0.034349 units=km linecode=BT108_BT108_7_2_1_3
New line.bt1527299 phases=3 bus1=1796022.1.2.4 bus2=1796085.1.2.4 length=0.0005 units=km linecode=BT507_BT507_7_2_1_3
New line.bt1527306 phases=3 bus1=1796085.1.2.4 bus2=1796092.1.2.4 length=0.030251 units=km linecode=BT108_BT108_7_2_1_3
New line.bt1527313 phases=3 bus1=1796092.1.2.4 bus2=1796099.1.2.4 length=0.035338 units=km linecode=BT108_BT108_7_2_1_3
New line.bt1527320 phases=3 bus1=1796092.1.2.4 bus2=1796134.1.2.4 length=0.034768 units=km linecode=BT801_BT801_4_2_3_3
New line.bt1527327 phases=3 bus1=1796099.1.2.4 bus2=1796106.1.2.4 length=0.036328000000000006 units=km linecode=BT108_BT108_7_2_1_3
New line.bt1527334 phases=3 bus1=1796106.1.2.4 bus2=1796113.1.2.4 length=0.038308999999999996 units=km linecode=BT108_BT108_7_2_1_3
New line.bt1527341 phases=3 bus1=1796106.1.2.4 bus2=1796141.1.2.4 length=0.028429 units=km linecode=BT801_BT801_4_2_3_3
New line.bt1527348 phases=3 bus1=1796113.1.2.4 bus2=1796120.1.2.4 length=0.031385 units=km linecode=BT808_BT808_4_2_3_3
New line.bt1527355 phases=3 bus1=1796120.1.2.4 bus2=1796127.1.2.4 length=0.030251 units=km linecode=BT808_BT808_4_2_3_3
New line.bt1527362 phases=3 bus1=1796134.1.2.4 bus2=1796148.1.2.4 length=0.031001 units=km linecode=BT801_BT801_4_2_3_3
New line.bt1527369 phases=3 bus1=1796148.1.2.4 bus2=1796155.1.2.4 length=0.031001 units=km linecode=BT801_BT801_4_2_3_3
New line.bt1527376 phases=3 bus1=1796148.1.2.4 bus2=1796162.1.2.4 length=0.032295000000000004 units=km linecode=BT808_BT808_4_2_3_3
New line.bt1527383 phases=3 bus1=1796162.1.2.4 bus2=1796169.1.2.4 length=0.031001 units=km linecode=BT808_BT808_4_2_3_3
New line.bt1527390 phases=3 bus1=1796169.1.2.4 bus2=1796176.1.2.4 length=0.032295000000000004 units=km linecode=BT808_BT808_4_2_3_3
New line.bt1527425 phases=3 bus1=1796239.1.2.4 bus2=1796246.1.2.4 length=0.0005 units=km linecode=BT513_BT513_7_2_1_3
New line.bt1527439 phases=3 bus1=1796267.1.2.4 bus2=1796274.1.2.4 length=0.0005 units=km linecode=BT307_BT307_7_2_1_3
New line.bt1527460 phases=3 bus1=1796309.1.2.4 bus2=1796316.1.2.4 length=0.0005 units=km linecode=BT309_BT309_7_2_1_3
New line.bt1527474 phases=3 bus1=1796337.1.2.4 bus2=1796344.1.2.4 length=0.0005 units=km linecode=BT307_BT307_7_2_1_3
New line.bt1527502 phases=4 bus1=1796386.1.2.3.4 bus2=1796393.1.2.3.4 length=0.0005 units=km linecode=BT311_BT311_7_3_1_4
New line.bt1527551 phases=3 bus1=1796484.1.2.4 bus2=1796491.1.2.4 length=0.0005 units=km linecode=BT307_BT307_7_2_1_3
New line.bt1527579 phases=3 bus1=1796540.1.2.4 bus2=1796547.1.2.4 length=0.0005 units=km linecode=BT307_BT307_7_2_1_3
New line.bt1527600 phases=4 bus1=1796582.1.2.3.4 bus2=1796589.1.2.3.4 length=0.0005 units=km linecode=BT307_BT307_7_3_1_4
New line.bt1527607 phases=3 bus1=1796596.1.2.4 bus2=1796603.1.2.4 length=0.0005 units=km linecode=BT307_BT307_7_2_1_3
New line.bt1527614 phases=4 bus1=1796610.1.2.3.4 bus2=1796617.1.2.3.4 length=0.0005 units=km linecode=BT307_BT307_7_3_1_4
New line.bt1527852 phases=3 bus1=1796897.1.2.4 bus2=1796904.1.2.4 length=0.0005 units=km linecode=BT307_BT307_7_2_1_3
New line.bt1528489 phases=3 bus1=1797506.1.2.4 bus2=1797513.1.2.4 length=0.0005 units=km linecode=BT307_BT307_7_2_1_3
New line.bt1528496 phases=3 bus1=1797520.1.2.4 bus2=1797527.1.2.4 length=0.0005 units=km linecode=BT508_BT508_7_2_1_3
New line.bt1528573 phases=3 bus1=1797618.1.2.4 bus2=1797625.1.2.4 length=0.0005 units=km linecode=BT521_BT521_7_2_1_3
New line.bt1528692 phases=3 bus1=1797730.1.2.4 bus2=1797737.1.2.4 length=0.0005 units=km linecode=BT307_BT307_7_2_1_3
New line.bt1528706 phases=4 bus1=1797758.1.2.3.4 bus2=1797765.1.2.3.4 length=0.0005 units=km linecode=BT518_BT518_7_3_1_4
New line.bt1528720 phases=3 bus1=1797786.1.2.4 bus2=1797793.1.2.4 length=0.0005 units=km linecode=BT307_BT307_7_2_1_3
New line.bt1528727 phases=3 bus1=1797800.1.2.4 bus2=1797807.1.2.4 length=0.0005 units=km linecode=BT307_BT307_7_2_1_3
New line.bt1528748 phases=3 bus1=1797842.1.2.4 bus2=1797849.1.2.4 length=0.0005 units=km linecode=BT521_BT521_7_2_1_3
New line.bt1528762 phases=3 bus1=1797870.1.2.4 bus2=1797877.1.2.4 length=0.0005 units=km linecode=BT307_BT307_7_2_1_3
New line.bt1528776 phases=4 bus1=1797884.1.2.3.4 bus2=1797891.1.2.3.4 length=0.0005 units=km linecode=BT521_BT521_7_3_1_4
New line.bt1528811 phases=3 bus1=1797940.1.2.4 bus2=1797947.1.2.4 length=0.0005 units=km linecode=BT307_BT307_7_2_1_3
New line.bt1528832 phases=4 bus1=1797968.1.2.3.4 bus2=1797975.1.2.3.4 length=0.0005 units=km linecode=BT508_BT508_7_3_1_4
New line.bt1528909 phases=3 bus1=1798108.1.2.4 bus2=1798115.1.2.4 length=0.0005 units=km linecode=BT307_BT307_7_2_1_3
New line.bt1528916 phases=4 bus1=1798122.1.2.3.4 bus2=1798129.1.2.3.4 length=0.0005 units=km linecode=BT304_BT304_7_3_1_4
New line.bt1528944 phases=4 bus1=1798178.1.2.3.4 bus2=1798185.1.2.3.4 length=0.0005 units=km linecode=BT513_BT513_7_3_1_4
New line.bt1528951 phases=4 bus1=1798192.1.2.3.4 bus2=1798199.1.2.3.4 length=0.0005 units=km linecode=BT508_BT508_7_3_1_4
New line.bt1528958 phases=3 bus1=1798206.1.2.4 bus2=1798213.1.2.4 length=0.0005 units=km linecode=BT521_BT521_7_2_1_3
New line.bt1528965 phases=3 bus1=1798220.1.2.4 bus2=1798227.1.2.4 length=0.0005 units=km linecode=BT307_BT307_7_2_1_3
New line.bt1528972 phases=3 bus1=1798234.1.2.4 bus2=1798241.1.2.4 length=0.0005 units=km linecode=BT307_BT307_7_2_1_3
New line.bt1529028 phases=3 bus1=1798346.1.2.4 bus2=1798353.1.2.4 length=0.0005 units=km linecode=BT513_BT513_7_2_1_3
New line.bt1529063 phases=3 bus1=1798416.1.2.4 bus2=1798423.1.2.4 length=0.0005 units=km linecode=BT307_BT307_7_2_1_3
New line.bt1529070 phases=3 bus1=1798430.1.2.4 bus2=1798437.1.2.4 length=0.0005 units=km linecode=BT307_BT307_7_2_1_3
New line.bt1529091 phases=3 bus1=1798472.1.2.4 bus2=1798479.1.2.4 length=0.0005 units=km linecode=BT307_BT307_7_2_1_3
New line.bt1529105 phases=3 bus1=1798500.1.2.4 bus2=1798507.1.2.4 length=0.0005 units=km linecode=BT521_BT521_7_2_1_3
New line.bt1529154 phases=4 bus1=1798598.1.2.3.4 bus2=1798605.1.2.3.4 length=0.0005 units=km linecode=BT518_BT518_7_3_1_4
New line.bt1529168 phases=3 bus1=1798626.1.2.4 bus2=1798633.1.2.4 length=0.0005 units=km linecode=BT307_BT307_7_2_1_3
New line.bt1529196 phases=3 bus1=1798668.1.2.4 bus2=1798675.1.2.4 length=0.0005 units=km linecode=BT513_BT513_7_2_1_3
New line.bt1529210 phases=3 bus1=1798696.1.2.4 bus2=1798703.1.2.4 length=0.0005 units=km linecode=BT307_BT307_7_2_1_3
New line.bt1529336 phases=3 bus1=1798808.1.2.4 bus2=1798815.1.2.4 length=0.0005 units=km linecode=BT513_BT513_7_2_1_3
New line.bt1529343 phases=3 bus1=1798822.1.2.4 bus2=1798829.1.2.4 length=0.0005 units=km linecode=BT521_BT521_7_2_1_3
New line.bt1529434 phases=4 bus1=1798878.1.2.3.4 bus2=1798885.1.2.3.4 length=0.0005 units=km linecode=BT518_BT518_7_3_1_4
New line.bt1529574 phases=3 bus1=1799074.1.2.4 bus2=1799081.1.2.4 length=0.0005 units=km linecode=BT307_BT307_7_2_1_3
New line.bt1529581 phases=4 bus1=1799088.1.2.3.4 bus2=1799095.1.2.3.4 length=0.0005 units=km linecode=BT518_BT518_7_3_1_4
New line.bt1529595 phases=3 bus1=1799116.1.2.4 bus2=1799123.1.2.4 length=0.0005 units=km linecode=BT307_BT307_7_2_1_3
New line.bt1529805 phases=4 bus1=1799270.1.2.3.4 bus2=1799277.1.2.3.4 length=0.0005 units=km linecode=BT507_BT507_7_3_1_4
New line.bt1529812 phases=4 bus1=1799284.1.2.3.4 bus2=1799291.1.2.3.4 length=0.0005 units=km linecode=BT521_BT521_7_3_1_4
New line.bt1529861 phases=4 bus1=1799347.1.2.3.4 bus2=1799354.1.2.3.4 length=0.0005 units=km linecode=BT521_BT521_7_3_1_4
New line.bt1529875 phases=3 bus1=1799375.1.2.4 bus2=1799382.1.2.4 length=0.0005 units=km linecode=BT307_BT307_7_2_1_3
New line.bt1529945 phases=3 bus1=1799480.1.2.4 bus2=1799487.1.2.4 length=0.0005 units=km linecode=BT307_BT307_7_2_1_3
New line.bt1530316 phases=3 bus1=1799928.1.2.4 bus2=1799935.1.2.4 length=0.0005 units=km linecode=BT307_BT307_7_2_1_3
New line.bt1530575 phases=3 bus1=1800222.1.2.4 bus2=1800229.1.2.4 length=0.0005 units=km linecode=BT307_BT307_7_2_1_3
New line.bt1530582 phases=4 bus1=1800236.1.2.3.4 bus2=1800243.1.2.3.4 length=0.0005 units=km linecode=BT508_BT508_7_3_1_4
New line.bt1531058 phases=4 bus1=1800789.1.2.3.4 bus2=1800796.1.2.3.4 length=0.0005 units=km linecode=BT307_BT307_7_3_1_4
New line.bt1532164 phases=3 bus1=1802007.1.2.4 bus2=1802014.1.2.4 length=0.0005 units=km linecode=BT521_BT521_7_2_1_3
New line.bt1532241 phases=4 bus1=1802098.1.2.3.4 bus2=1802105.1.2.3.4 length=0.0005 units=km linecode=BT307_BT307_7_3_1_4
New line.bt1532479 phases=3 bus1=1802392.1.2.4 bus2=1802399.1.2.4 length=0.0005 units=km linecode=BT513_BT513_7_2_1_3
New line.bt1532864 phases=3 bus1=1802805.1.2.4 bus2=1802812.1.2.4 length=0.0005 units=km linecode=BT521_BT521_7_2_1_3
New line.bt1533270 phases=4 bus1=1803281.1.2.3.4 bus2=1803288.1.2.3.4 length=0.0005 units=km linecode=BT518_BT518_7_3_1_4
New line.bt1533326 phases=4 bus1=1803358.1.2.3.4 bus2=1803365.1.2.3.4 length=0.0005 units=km linecode=BT307_BT307_7_3_1_4
New line.bt1533536 phases=3 bus1=1803631.1.2.4 bus2=1803638.1.2.4 length=0.0005 units=km linecode=BT307_BT307_7_2_1_3
New line.bt1533676 phases=3 bus1=1803799.1.2.4 bus2=1803806.1.2.4 length=0.0005 units=km linecode=BT307_BT307_7_2_1_3
New line.bt1533746 phases=3 bus1=1803876.1.2.4 bus2=1803883.1.2.4 length=0.0005 units=km linecode=BT307_BT307_7_2_1_3
New line.bt1533837 phases=3 bus1=1803988.1.2.4 bus2=1803995.1.2.4 length=0.0005 units=km linecode=BT307_BT307_7_2_1_3
New line.bt1533844 phases=3 bus1=1804002.1.2.4 bus2=1804009.1.2.4 length=0.0005 units=km linecode=BT307_BT307_7_2_1_3
New line.bt1534327 phases=3 bus1=1804478.1.2.4 bus2=1804485.1.2.4 length=0.0005 units=km linecode=BT307_BT307_7_2_1_3
New line.bt1534866 phases=4 bus1=1805101.1.2.3.4 bus2=1805108.1.2.3.4 length=0.0005 units=km linecode=BT508_BT508_7_3_1_4
New line.bt1535755 phases=4 bus1=1806095.1.2.3.4 bus2=1806102.1.2.3.4 length=0.0005 units=km linecode=BT518_BT518_7_3_1_4
New line.bt1536063 phases=3 bus1=1806473.1.2.4 bus2=1806480.1.2.4 length=0.0005 units=km linecode=BT307_BT307_7_2_1_3
New line.bt1536070 phases=3 bus1=1806487.1.2.4 bus2=1806494.1.2.4 length=0.0005 units=km linecode=BT307_BT307_7_2_1_3
New line.bt1536091 phases=3 bus1=1806529.1.2.4 bus2=1806536.1.2.4 length=0.0005 units=km linecode=BT513_BT513_7_2_1_3
New line.bt1536161 phases=3 bus1=1806669.1.2.4 bus2=1806676.1.2.4 length=0.0005 units=km linecode=BT307_BT307_7_2_1_3
New line.bt1536238 phases=3 bus1=1806823.1.2.4 bus2=1806830.1.2.4 length=0.0005 units=km linecode=BT513_BT513_7_2_1_3
New line.bt1536266 phases=3 bus1=1806865.1.2.4 bus2=1806872.1.2.4 length=0.0005 units=km linecode=BT307_BT307_7_2_1_3
New line.bt1536609 phases=3 bus1=1807271.1.2.4 bus2=1807278.1.2.4 length=0.0005 units=km linecode=BT307_BT307_7_2_1_3
New line.bt1536791 phases=3 bus1=1807495.1.2.4 bus2=1807502.1.2.4 length=0.0005 units=km linecode=BT307_BT307_7_2_1_3
New line.bt1537134 phases=4 bus1=1807908.1.2.3.4 bus2=1807915.1.2.3.4 length=0.0005 units=km linecode=BT513_BT513_7_3_1_4
New line.bt1537477 phases=4 bus1=1808244.1.2.3.4 bus2=1808251.1.2.3.4 length=0.0005 units=km linecode=BT514_BT514_7_3_1_4
New line.bt1537498 phases=3 bus1=1808286.1.2.4 bus2=1808293.1.2.4 length=0.0005 units=km linecode=BT307_BT307_7_2_1_3
New line.bt1537554 phases=3 bus1=1808342.1.2.4 bus2=1808349.1.2.4 length=0.0005 units=km linecode=BT307_BT307_7_2_1_3
New line.bt1537904 phases=3 bus1=1808734.1.2.4 bus2=1808741.1.2.4 length=0.0005 units=km linecode=BT307_BT307_7_2_1_3
New line.bt1537932 phases=3 bus1=1808776.1.2.4 bus2=1808783.1.2.4 length=0.0005 units=km linecode=BT307_BT307_7_2_1_3
New line.bt1537995 phases=3 bus1=1808860.1.2.4 bus2=1808867.1.2.4 length=0.0005 units=km linecode=BT307_BT307_7_2_1_3
New line.bt1538660 phases=3 bus1=1809567.1.2.4 bus2=1809574.1.2.4 length=0.0005 units=km linecode=BT307_BT307_7_2_1_3
New line.bt1539388 phases=3 bus1=1810386.1.2.4 bus2=1810393.1.2.4 length=0.0005 units=km linecode=BT307_BT307_7_2_1_3
New line.bt1539577 phases=3 bus1=1810568.1.2.4 bus2=1810575.1.2.4 length=0.0005 units=km linecode=BT307_BT307_7_2_1_3
New line.bt1540585 phases=3 bus1=1811702.1.2.4 bus2=1811709.1.2.4 length=0.0005 units=km linecode=BT307_BT307_7_2_1_3
New line.bt1542552 phases=3 bus1=1813809.1.2.4 bus2=1813816.1.2.4 length=0.0005 units=km linecode=BT307_BT307_7_2_1_3
New line.bt1544288 phases=3 bus1=1816028.1.2.4 bus2=1816035.1.2.4 length=0.0005 units=km linecode=BT307_BT307_7_2_1_3
New line.bt1547123 phases=3 bus1=1818933.1.2.4 bus2=1818940.1.2.4 length=0.0005 units=km linecode=BT307_BT307_7_2_1_3
New line.bt1550805 phases=3 bus1=5508108.1.2.4 bus2=5508115.1.2.4 length=0.0005 units=km linecode=BT521_BT521_7_2_1_3
New line.bt1962797 phases=3 bus1=2247109.1.2.4 bus2=2247116.1.2.4 length=0.0005 units=km linecode=BT307_BT307_7_2_1_3
New line.bt1962825 phases=4 bus1=2247165.1.2.3.4 bus2=2247172.1.2.3.4 length=0.0005 units=km linecode=BT521_BT521_7_3_1_4
New line.bt1963119 phases=3 bus1=2247753.1.2.4 bus2=2247760.1.2.4 length=0.0005 units=km linecode=BT508_BT508_7_2_1_3
New line.bt1963126 phases=3 bus1=2247767.1.2.4 bus2=2247774.1.2.4 length=0.0005 units=km linecode=BT309_BT309_7_2_1_3
New line.bt1963259 phases=3 bus1=2248019.1.2.4 bus2=2248026.1.2.4 length=0.0005 units=km linecode=BT307_BT307_7_2_1_3
New line.bt1963784 phases=3 bus1=2248698.1.2.4 bus2=2248705.1.2.4 length=0.0005 units=km linecode=BT307_BT307_7_2_1_3
New line.bt1963791 phases=3 bus1=2248705.1.2.4 bus2=2248712.1.2.4 length=0.076989 units=km linecode=BT108_BT107_7_2_1_3
New line.bt1963798 phases=3 bus1=2248705.1.2.4 bus2=2248726.1.2.4 length=0.076121 units=km linecode=BT108_BT107_7_2_1_3
New line.bt1963805 phases=3 bus1=2248712.1.2.4 bus2=2248719.1.2.4 length=0.076989 units=km linecode=BT108_BT107_7_2_1_3
New line.bt1963812 phases=3 bus1=2248726.1.2.4 bus2=158940391.1.2.4 length=0.037198 units=km linecode=BT108_BT107_7_2_1_3
New line.bt1963819 phases=3 bus1=2248733.1.2.4 bus2=2248747.1.2.4 length=0.007068 units=km linecode=BT801_BT801_4_2_3_3
New line.bt1963826 phases=3 bus1=2248733.1.2.4 bus2=3547086.1.2.4 length=0.046119 units=km linecode=BT808_BT808_4_2_3_3
New line.bt1963833 phases=3 bus1=2248740.1.2.4 bus2=2248761.1.2.4 length=0.038569000000000006 units=km linecode=BT801_BT801_4_2_3_3
New line.bt1963840 phases=3 bus1=2248747.1.2.4 bus2=2248754.1.2.4 length=0.038569000000000006 units=km linecode=BT801_BT801_4_2_3_3
New line.bt1963847 phases=3 bus1=2248754.1.2.4 bus2=2248740.1.2.4 length=0.03893 units=km linecode=BT801_BT801_4_2_3_3
New line.bt1963854 phases=3 bus1=2248768.1.2.4 bus2=2248775.1.2.4 length=0.0005 units=km linecode=BT508_BT508_7_2_1_3
New line.bt1963861 phases=3 bus1=2248775.1.2.4 bus2=2248782.1.2.4 length=0.072525 units=km linecode=BT803_BT803_4_2_4_3
New line.bt1963868 phases=3 bus1=2248775.1.2.4 bus2=2248789.1.2.4 length=0.070294 units=km linecode=BT803_BT803_4_2_4_3
New line.bt1963875 phases=3 bus1=2248782.1.2.4 bus2=158940771.1.2.4 length=0.03583 units=km linecode=BT803_BT803_4_2_4_3
New line.bt1963889 phases=3 bus1=2248796.1.2.4 bus2=2248817.1.2.4 length=0.040292 units=km linecode=BT803_BT803_4_2_4_3
New line.bt1963896 phases=3 bus1=2248796.1.2.4 bus2=2248831.1.2.4 length=0.062739 units=km linecode=BT801_BT801_4_2_3_3
New line.bt1963903 phases=3 bus1=2248803.1.2.4 bus2=2248824.1.2.4 length=0.038061 units=km linecode=BT803_BT803_4_2_4_3
New line.bt1963917 phases=3 bus1=2248817.1.2.4 bus2=2248803.1.2.4 length=0.038061 units=km linecode=BT803_BT803_4_2_4_3
New line.bt1963924 phases=3 bus1=2248824.1.2.4 bus2=2248810.1.2.4 length=0.03893 units=km linecode=BT803_BT803_4_2_4_3
New line.bt1963931 phases=3 bus1=2248831.1.2.4 bus2=2248838.1.2.4 length=0.057774 units=km linecode=BT801_BT801_4_2_3_3
New line.bt1963938 phases=3 bus1=2248845.1.2.4 bus2=2248852.1.2.4 length=0.0005 units=km linecode=BT521_BT521_7_2_1_3
New line.bt1963945 phases=3 bus1=2248852.1.2.4 bus2=2248859.1.2.4 length=0.080583 units=km linecode=BT108_BT108_7_2_1_3
New line.bt1963952 phases=3 bus1=2248852.1.2.4 bus2=2248873.1.2.4 length=0.073026 units=km linecode=BT108_BT108_7_2_1_3
New line.bt1963959 phases=3 bus1=2248859.1.2.4 bus2=2248866.1.2.4 length=0.077487 units=km linecode=BT108_BT108_7_2_1_3
New line.bt1963973 phases=3 bus1=2248873.1.2.4 bus2=2248880.1.2.4 length=0.043887999999999996 units=km linecode=BT108_BT108_7_2_1_3
New line.bt1963980 phases=3 bus1=2248887.1.2.4 bus2=2248894.1.2.4 length=0.0005 units=km linecode=BT307_BT307_7_2_1_3
New line.bt1963987 phases=3 bus1=2248894.1.2.4 bus2=2248901.1.2.4 length=0.063601 units=km linecode=BT107_BT106_7_2_1_3
New line.bt1963994 phases=3 bus1=2248894.1.2.4 bus2=2248915.1.2.4 length=0.064467 units=km linecode=BT107_BT106_7_2_1_3
New line.bt1964001 phases=3 bus1=2248901.1.2.4 bus2=2248908.1.2.4 length=0.064467 units=km linecode=BT107_BT106_7_2_1_3
New line.bt1964008 phases=3 bus1=2248908.1.2.4 bus2=2248936.1.2.4 length=0.00608 units=km linecode=BT801_BT801_4_2_3_3
New line.bt1964015 phases=3 bus1=2248915.1.2.4 bus2=2248922.1.2.4 length=0.062235 units=km linecode=BT107_BT106_7_2_1_3
New line.bt1964022 phases=3 bus1=2248922.1.2.4 bus2=2248929.1.2.4 length=0.063601 units=km linecode=BT107_BT106_7_2_1_3
New line.bt1964029 phases=3 bus1=2248936.1.2.4 bus2=2248943.1.2.4 length=0.057426000000000005 units=km linecode=BT801_BT801_4_2_3_3
New line.bt1964036 phases=3 bus1=2248943.1.2.4 bus2=2248950.1.2.4 length=0.062340000000000007 units=km linecode=BT801_BT801_4_2_3_3
New line.bt1964043 phases=3 bus1=2248950.1.2.4 bus2=3119239.1.2.4 length=0.059208 units=km linecode=BT808_BT808_4_2_3_3
New line.bt1964050 phases=3 bus1=2248957.1.2.4 bus2=2248964.1.2.4 length=0.0005 units=km linecode=BT307_BT307_7_2_1_3
New line.bt1964057 phases=3 bus1=2248964.1.2.4 bus2=2248971.1.2.4 length=0.062235 units=km linecode=BT108_BT107_7_2_1_3
New line.bt1964064 phases=3 bus1=2248964.1.2.4 bus2=2248992.1.2.4 length=0.064467 units=km linecode=BT108_BT107_7_2_1_3
New line.bt1964071 phases=3 bus1=2248971.1.2.4 bus2=2248978.1.2.4 length=0.05864 units=km linecode=BT108_BT107_7_2_1_3