New line.mt528238 phases=1 bus1=166723273.2 bus2=2688984B.2 linecode=CAB202_3_1_1 length=0.11951300000000001 units=km 
New line.mt528266 phases=3 bus1=161804128.1.2.3 bus2=4168735B.1.2.3 linecode=CABA06_3_3_3 length=0.037103000000000004 units=km 
New line.mt528273 phases=1 bus1=1348799B.2 bus2=178837742.2 linecode=CAB103_3_1_1 length=0.026388 units=km 
New line.mt528280 phases=1 bus1=178837741.2 bus2=1348799B.2 linecode=CAB103_3_1_1 length=0.028986 units=km 
New line.mt528287 phases=1 bus1=178837740.2 bus2=178837741.2 linecode=CAB103_3_1_1 length=0.029684000000000002 units=km 
New line.mt528294 phases=1 bus1=1348820B.2 bus2=178837740.2 linecode=CAB103_3_1_1 length=0.031098 units=km 
New line.mt528301 phases=1 bus1=1348827B.2 bus2=1348820B.2 linecode=CAB103_3_1_1 length=0.029397 units=km 
New line.mt528308 phases=1 bus1=159498642.2 bus2=159498643.2 linecode=CAB202_3_1_1 length=0.060798000000000005 units=km 
New line.mt528315 phases=1 bus1=139958438.3 bus2=126412444.3 linecode=CAB103_3_1_1 length=0.038878 units=km 
New line.mt528322 phases=1 bus1=139961063.1 bus2=1348946B.1 linecode=CAB102_3_1_1 length=0.048390999999999997 units=km 
New line.mt528329 phases=1 bus1=139961028.3 bus2=139961035.3 linecode=CAB103_3_1_1 length=0.03686 units=km 
New line.mt528336 phases=1 bus1=139961035.3 bus2=1348911B.3 linecode=CAB103_3_1_1 length=0.038060000000000004 units=km 
New line.mt528343 phases=1 bus1=1348911B.3 bus2=1348918B.3 linecode=CAB103_3_1_1 length=0.03686 units=km 
New line.mt528350 phases=1 bus1=1348918B.3 bus2=139961042.3 linecode=CAB103_3_1_1 length=0.037090000000000005 units=km 
New line.mt528357 phases=1 bus1=139961042.3 bus2=1800369B.3 linecode=CAB103_3_1_1 length=0.058212 units=km 
New line.mt528364 phases=1 bus1=139961042.3 bus2=1800418B.3 linecode=CAB103_3_1_1 length=0.049453000000000004 units=km 
New line.mt528371 phases=3 bus1=1348939B.1.2.3 bus2=139958438.1.2.3 linecode=CAB103_3_3_3 length=0.064968 units=km 
New line.mt528378 phases=1 bus1=1348946B.1 bus2=139961070.1 linecode=CAB102_3_1_1 length=0.168786 units=km 
New line.mt528385 phases=1 bus1=178837739.2 bus2=1348827B.2 linecode=CAB103_3_1_1 length=0.027446 units=km 
New line.mt528392 phases=3 bus1=178837739.1.2.3 bus2=1348939B.1.2.3 linecode=CAB103_3_3_3 length=0.038452 units=km 
New line.mt528399 phases=3 bus1=1348981B.1.2.3 bus2=178837739.1.2.3 linecode=CAB103_3_3_3 length=0.043025 units=km 
New line.mt528406 phases=3 bus1=178837737.1.2.3 bus2=1348981B.1.2.3 linecode=CAB103_3_3_3 length=0.04186 units=km 
New line.mt528413 phases=3 bus1=178837736.1.2.3 bus2=178837737.1.2.3 linecode=CAB103_3_3_3 length=0.04408 units=km 
New line.mt528420 phases=1 bus1=178837736.2 bus2=1349009B.2 linecode=CAB102_3_1_1 length=0.021179 units=km 
New line.mt528427 phases=1 bus1=1349009B.2 bus2=1349030B.2 linecode=CAB102_3_1_1 length=0.035338 units=km 
New line.mt528434 phases=3 bus1=1349016B.1.2.3 bus2=178837736.1.2.3 linecode=CAB103_3_3_3 length=0.044397 units=km 
New line.mt528441 phases=3 bus1=1349023B.1.2.3 bus2=1349016B.1.2.3 linecode=CAB103_3_3_3 length=0.040797 units=km 
New line.mt528448 phases=1 bus1=1349030B.2 bus2=1349149B.2 linecode=CAB102_3_1_1 length=0.035338 units=km 
New line.mt528455 phases=3 bus1=1349079B.1.2.3 bus2=3264104B.1.2.3 linecode=CAB103_3_3_3 length=0.042699 units=km 
New line.mt528462 phases=3 bus1=178837735.1.2.3 bus2=1349079B.1.2.3 linecode=CAB103_3_3_3 length=0.032741 units=km 
New line.mt528469 phases=3 bus1=178837734.1.2.3 bus2=178837735.1.2.3 linecode=CAB103_3_3_3 length=0.031049 units=km 
New line.mt528483 phases=3 bus1=139958977.1.2.3 bus2=139958984.1.2.3 linecode=CAB103_3_3_3 length=0.019714 units=km 
New line.mt528497 phases=1 bus1=1349149B.2 bus2=1349156B.2 linecode=CAB102_3_1_1 length=0.036328000000000006 units=km 
New line.mt528504 phases=1 bus1=1349156B.2 bus2=1349177B.2 linecode=CAB102_3_1_1 length=0.034218000000000005 units=km 
New line.mt528511 phases=1 bus1=1349177B.2 bus2=178837738.2 linecode=CAB102_3_1_1 length=0.034349 units=km 
New line.mt529022 phases=3 bus1=183148980.1.2.3 bus2=2688410B.1.2.3 linecode=CAB207_3_3_3 length=0.124467 units=km 
New line.mt532011 phases=1 bus1=183199112.3 bus2=2690615B.3 linecode=CAB202_3_1_1 length=0.765025 units=km 
New line.mt534097 phases=1 bus1=157400384.1 bus2=157400386.1 linecode=CAB202_3_1_1 length=0.099794 units=km 
New line.mt535308 phases=3 bus1=180953671.1.2.3 bus2=1360559B.1.2.3 linecode=CAB103_3_3_3 length=0.027188 units=km 
New line.mt535315 phases=3 bus1=1360566B.1.2.3 bus2=1360559B.1.2.3 linecode=CAB103_3_3_3 length=0.030577 units=km 
New line.mt535322 phases=3 bus1=1360566B.1.2.3 bus2=1360573B.1.2.3 linecode=CAB103_3_3_3 length=0.009215 units=km 
New line.mt535329 phases=3 bus1=1360573B.1.2.3 bus2=180953673.1.2.3 linecode=CAB103_3_3_3 length=0.036215000000000004 units=km 
New line.mt540334 phases=3 bus1=150389623.1.2.3 bus2=149921158.1.2.3 linecode=CABA08_3_3_3 length=0.029138999999999998 units=km 
New line.mt540355 phases=3 bus1=149959263.1.2.3 bus2=149959264.1.2.3 linecode=CAB103_3_3_3 length=0.048233 units=km 
New line.mt540362 phases=3 bus1=126406830.1.2.3 bus2=137962444.1.2.3 linecode=CABA08_3_3_3 length=0.036979 units=km 
New line.mt540369 phases=3 bus1=1370534B.1.2.3 bus2=126406830.1.2.3 linecode=CABA08_3_3_3 length=0.031998 units=km 
New line.mt540509 phases=3 bus1=176347003.1.2.3 bus2=1370639C.1.2.3 linecode=CABA08_3_3_3 length=0.054978 units=km 
New line.mt541482 phases=3 bus1=126406676.1.2.3 bus2=126406683.1.2.3 linecode=CAB108_3_3_3 length=0.013921 units=km 
New line.mt541496 phases=3 bus1=126406683.1.2.3 bus2=126406690.1.2.3 linecode=CAB108_3_3_3 length=0.01771 units=km 
New line.mt541510 phases=3 bus1=126406690.1.2.3 bus2=1372375C.1.2.3 linecode=CAB907_4_3_3 length=0.026234 units=km 
New line.mt541524 phases=3 bus1=1372375C.1.2.3 bus2=1372382C.1.2.3 linecode=CAB907_4_3_3 length=0.011396000000000002 units=km 
New line.mt541538 phases=3 bus1=1372382C.1.2.3 bus2=1372389C.1.2.3 linecode=CAB907_4_3_3 length=0.029103999999999998 units=km 
New line.mt541552 phases=3 bus1=1372389C.1.2.3 bus2=1372459C.1.2.3 linecode=CAB907_4_3_3 length=0.051216 units=km 
New line.mt541713 phases=3 bus1=1372473C.1.2.3 bus2=126406739.1.2.3 linecode=CABA08_3_3_3 length=0.051216 units=km 
New line.mt541727 phases=3 bus1=176347001.1.2.3 bus2=1372494C.1.2.3 linecode=CABA08_3_3_3 length=0.061096 units=km 
New line.mt541734 phases=3 bus1=1372494C.1.2.3 bus2=1372501C.1.2.3 linecode=CABA08_3_3_3 length=0.047775 units=km 
New line.mt541741 phases=3 bus1=1372501C.1.2.3 bus2=1372508C.1.2.3 linecode=CABA08_3_3_3 length=0.058491 units=km 
New line.mt541748 phases=3 bus1=1372508C.1.2.3 bus2=176347002.1.2.3 linecode=CABA08_3_3_3 length=0.060340000000000005 units=km 
New line.mt541755 phases=3 bus1=176347002.1.2.3 bus2=1372522C.1.2.3 linecode=CABA08_3_3_3 length=0.059649 units=km 
New line.mt541762 phases=3 bus1=1372522C.1.2.3 bus2=1372529C.1.2.3 linecode=CABA08_3_3_3 length=0.058217 units=km 
New line.mt541769 phases=3 bus1=1372529C.1.2.3 bus2=1372536C.1.2.3 linecode=CABA08_3_3_3 length=0.061585 units=km 
New line.mt541776 phases=3 bus1=1372536C.1.2.3 bus2=1372543C.1.2.3 linecode=CABA08_3_3_3 length=0.060073999999999995 units=km 
New line.mt541783 phases=3 bus1=1372543C.1.2.3 bus2=1372550C.1.2.3 linecode=CABA08_3_3_3 length=0.059783 units=km 
New line.mt541790 phases=3 bus1=1372550C.1.2.3 bus2=176347003.1.2.3 linecode=CABA08_3_3_3 length=0.061259999999999995 units=km 
New line.mt736271 phases=1 bus1=158943102.3 bus2=1737222B.3 linecode=CAB202_3_1_1 length=0.076989 units=km 
New line.mt736278 phases=1 bus1=1737222B.3 bus2=1737229B.3 linecode=CAB202_3_1_1 length=0.076989 units=km 
New line.mt736285 phases=1 bus1=1737229B.3 bus2=3395102B.3 linecode=CAB202_3_1_1 length=0.044397 units=km 
New line.mt736292 phases=1 bus1=1737236B.3 bus2=158943102.3 linecode=CAB202_3_1_1 length=0.076121 units=km 
New line.mt736306 phases=3 bus1=180609070.1.2.3 bus2=3309464B.1.2.3 linecode=CABA06_3_3_3 length=0.046119 units=km 
New line.mt736313 phases=3 bus1=1737250B.1.2.3 bus2=1737264B.1.2.3 linecode=CABA06_3_3_3 length=0.03893 units=km 
New line.mt736320 phases=3 bus1=1737257B.1.2.3 bus2=180609070.1.2.3 linecode=CABA06_3_3_3 length=0.007068 units=km 
New line.mt736327 phases=3 bus1=1737264B.1.2.3 bus2=1737257B.1.2.3 linecode=CABA06_3_3_3 length=0.038569000000000006 units=km 
New line.mt736334 phases=3 bus1=1737271B.1.2.3 bus2=1737250B.1.2.3 linecode=CABA06_3_3_3 length=0.038569000000000006 units=km 
New line.mt736341 phases=1 bus1=166723126.2 bus2=1737285B.2 linecode=CAB202_3_1_1 length=0.072525 units=km 
New line.mt736355 phases=1 bus1=166723127.2 bus2=166723126.2 linecode=CAB202_3_1_1 length=0.070294 units=km 
New line.mt736362 phases=1 bus1=166723127.2 bus2=1737369B.2 linecode=CAB202_3_1_1 length=0.076121 units=km 
New line.mt736369 phases=1 bus1=166723127.2 bus2=148048478.2 linecode=CAB202_3_1_1 length=0.06051 units=km 
New line.mt736376 phases=3 bus1=180609071.1.2.3 bus2=1737327B.1.2.3 linecode=CABA06_3_3_3 length=0.040292 units=km 
New line.mt736383 phases=1 bus1=180609071.2 bus2=158941166.2 linecode=CABA06_3_1_1 length=0.062739 units=km 
New line.mt736397 phases=3 bus1=1737306B.1.2.3 bus2=1737334B.1.2.3 linecode=CABA06_3_3_3 length=0.038061 units=km 
New line.mt736404 phases=3 bus1=1737313B.1.2.3 bus2=1737271B.1.2.3 linecode=CABA06_3_3_3 length=0.039427 units=km 
New line.mt736411 phases=1 bus1=1737320B.2 bus2=166723127.2 linecode=CAB202_3_1_1 length=0.073026 units=km 
New line.mt736418 phases=3 bus1=1737327B.1.2.3 bus2=1737306B.1.2.3 linecode=CABA06_3_3_3 length=0.038061 units=km 
New line.mt736425 phases=3 bus1=1737334B.1.2.3 bus2=1737313B.1.2.3 linecode=CABA06_3_3_3 length=0.03893 units=km 
New line.mt736432 phases=1 bus1=158943157.2 bus2=1737348B.2 linecode=CAB103_3_1_1 length=0.057774 units=km 
New line.mt736439 phases=1 bus1=1737348B.2 bus2=2919417B.2 linecode=CAB103_3_1_1 length=0.040292 units=km 
New line.mt736446 phases=1 bus1=1737362B.2 bus2=166723128.2 linecode=CAB202_3_1_1 length=0.080583 units=km 
New line.mt736453 phases=1 bus1=1737369B.2 bus2=1737362B.2 linecode=CAB202_3_1_1 length=0.077487 units=km 
New line.mt736460 phases=1 bus1=176324120.2 bus2=1737411B.2 linecode=CAB202_3_1_1 length=0.064467 units=km 
New line.mt736467 phases=1 bus1=1737397B.2 bus2=176324120.2 linecode=CAB202_3_1_1 length=0.063601 units=km 
New line.mt736474 phases=1 bus1=1737404B.2 bus2=1737397B.2 linecode=CAB202_3_1_1 length=0.064467 units=km 
New line.mt736481 phases=1 bus1=1737411B.2 bus2=158887025.2 linecode=CAB202_3_1_1 length=0.062235 units=km 
New line.mt736488 phases=1 bus1=166723244.2 bus2=1737425B.2 linecode=CAB202_3_1_1 length=0.063601 units=km 
New line.mt736495 phases=1 bus1=1737425B.2 bus2=166723245.2 linecode=CAB202_3_1_1 length=0.005829 units=km 
New line.mt736502 phases=1 bus1=176324118.2 bus2=1737404B.2 linecode=CAB202_3_1_1 length=0.00608 units=km 
New line.mt736509 phases=1 bus1=176324118.2 bus2=176324121.2 linecode=CAB202_3_1_1 length=0.026913 units=km 
New line.mt736516 phases=1 bus1=1737439B.2 bus2=176324118.2 linecode=CAB202_3_1_1 length=0.057426000000000005 units=km 
New line.mt736523 phases=1 bus1=176324117.2 bus2=1737439B.2 linecode=CAB202_3_1_1 length=0.062340000000000007 units=km 
New line.mt736530 phases=1 bus1=176324117.2 bus2=2921755B.2 linecode=CAB202_3_1_1 length=0.059208 units=km 
New line.mt736537 phases=1 bus1=166723246.2 bus2=1737474B.2 linecode=CAB202_3_1_1 length=0.064467 units=km 
New line.mt736544 phases=1 bus1=1737460B.2 bus2=166723246.2 linecode=CAB202_3_1_1 length=0.062235 units=km 
New line.mt736551 phases=1 bus1=166723245.2 bus2=1737460B.2 linecode=CAB202_3_1_1 length=0.05864 units=km 
New line.mt736558 phases=1 bus1=166723245.2 bus2=1737488B.2 linecode=CAB202_3_1_1 length=0.005829 units=km 
New line.mt736565 phases=1 bus1=166723245.2 bus2=1737502B.2 linecode=CAB202_3_1_1 length=0.06893 units=km 
New line.mt736572 phases=1 bus1=1737474B.2 bus2=1737481B.2 linecode=CAB202_3_1_1 length=0.064467 units=km 
New line.mt736579 phases=1 bus1=1737481B.2 bus2=1737523B.2 linecode=CAB202_3_1_1 length=0.064467 units=km 
New line.mt736593 phases=1 bus1=166723247.2 bus2=1737530B.2 linecode=CAB202_3_1_1 length=0.064467 units=km 
New line.mt736600 phases=1 bus1=1737516B.2 bus2=166723247.2 linecode=CAB202_3_1_1 length=0.064467 units=km 
New line.mt736607 phases=1 bus1=1737523B.2 bus2=1737516B.2 linecode=CAB202_3_1_1 length=0.063601 units=km 
New line.mt736614 phases=1 bus1=1737530B.2 bus2=1737537B.2 linecode=CAB202_3_1_1 length=0.063601 units=km 
New line.mt736621 phases=1 bus1=1737537B.2 bus2=1737544B.2 linecode=CAB202_3_1_1 length=0.070733 units=km 
New line.mt736628 phases=1 bus1=1737544B.2 bus2=166723248.2 linecode=CAB202_3_1_1 length=0.110626 units=km 
New line.mt736635 phases=1 bus1=126410533.3 bus2=1737572B.3 linecode=CAB202_3_1_1 length=0.06893 units=km 
New line.mt736642 phases=1 bus1=1737558B.3 bus2=126410533.3 linecode=CAB202_3_1_1 length=0.06856699999999999 units=km 
New line.mt736649 phases=1 bus1=1737565B.3 bus2=1737558B.3 linecode=CAB202_3_1_1 length=0.068443 units=km 
New line.mt736656 phases=1 bus1=1737572B.3 bus2=1737579B.3 linecode=CAB202_3_1_1 length=0.070294 units=km 
New line.mt736663 phases=1 bus1=1737579B.3 bus2=126410540.3 linecode=CAB202_3_1_1 length=0.06856699999999999 units=km 
New line.mt736670 phases=1 bus1=126410526.3 bus2=1737565B.3 linecode=CAB202_3_1_1 length=0.008058999999999998 units=km 
New line.mt736677 phases=3 bus1=126409812.1.2.3 bus2=126409819.1.2.3 linecode=CAB207_3_3_3 length=0.067967 units=km 
New line.mt736684 phases=1 bus1=180590104.2 bus2=126410617.2 linecode=CAB202_3_1_1 length=0.030872 units=km 
New line.mt736691 phases=3 bus1=1737621B.1.2.3 bus2=1737670B.1.2.3 linecode=CAB202_3_3_3 length=0.032234 units=km 
New line.mt736698 phases=3 bus1=1737628B.1.2.3 bus2=1737663B.1.2.3 linecode=CAB202_3_3_3 length=0.03137 units=km 
New line.mt736705 phases=3 bus1=1737635B.1.2.3 bus2=1737656B.1.2.3 linecode=CAB202_3_3_3 length=0.032234 units=km 
New line.mt736712 phases=1 bus1=1737642B.2 bus2=1737684B.2 linecode=CAB202_3_1_1 length=0.03137 units=km 
New line.mt736719 phases=1 bus1=176324113.2 bus2=1737726B.2 linecode=CABA06_3_1_1 length=0.032234 units=km 
New line.mt736726 phases=3 bus1=1737656B.1.2.3 bus2=1737628B.1.2.3 linecode=CAB202_3_3_3 length=0.032234 units=km 
New line.mt736733 phases=3 bus1=1737663B.1.2.3 bus2=1737621B.1.2.3 linecode=CAB202_3_3_3 length=0.032234 units=km 
New line.mt736740 phases=3 bus1=1737670B.1.2.3 bus2=180590104.1.2.3 linecode=CAB202_3_3_3 length=0.032741 units=km 
New line.mt736747 phases=1 bus1=176324111.2 bus2=1737642B.2 linecode=CAB202_3_1_1 length=0.032234 units=km 
New line.mt736754 phases=1 bus1=1737684B.2 bus2=176324113.2 linecode=CAB202_3_1_1 length=0.032234 units=km 
New line.mt736761 phases=1 bus1=176324114.2 bus2=1737740B.2 linecode=CABA06_3_1_1 length=0.032234 units=km 
New line.mt736768 phases=1 bus1=1737698B.2 bus2=1737733B.2 linecode=CABA06_3_1_1 length=0.032234 units=km 
New line.mt736775 phases=1 bus1=1737705B.2 bus2=1737747B.2 linecode=CABA06_3_1_1 length=0.032234 units=km 
New line.mt736782 phases=1 bus1=1737712B.2 bus2=1737754B.2 linecode=CABA06_3_1_1 length=0.03137 units=km 
New line.mt736789 phases=1 bus1=176324116.2 bus2=176324117.2 linecode=CAB202_3_1_1 length=0.18891 units=km 
New line.mt736796 phases=1 bus1=1737726B.2 bus2=1737698B.2 linecode=CABA06_3_1_1 length=0.03137 units=km 
New line.mt736803 phases=1 bus1=1737733B.2 bus2=176324114.2 linecode=CABA06_3_1_1 length=0.03137 units=km 
New line.mt736810 phases=1 bus1=1737740B.2 bus2=1737705B.2 linecode=CABA06_3_1_1 length=0.032234 units=km 
New line.mt736817 phases=1 bus1=1737747B.2 bus2=1737712B.2 linecode=CABA06_3_1_1 length=0.03137 units=km 
New line.mt736824 phases=1 bus1=1737754B.2 bus2=176324116.2 linecode=CABA06_3_1_1 length=0.030872 units=km 
New line.mt744223 phases=3 bus1=180289289.1.2.3 bus2=1751152B.1.2.3 linecode=CAB202_3_3_3 length=0.1102 units=km 
New line.mt744230 phases=3 bus1=1751026B.1.2.3 bus2=180289289.1.2.3 linecode=CAB202_3_3_3 length=0.058021 units=km 
New line.mt744237 phases=3 bus1=1751033B.1.2.3 bus2=1751026B.1.2.3 linecode=CAB202_3_3_3 length=0.058825 units=km 
New line.mt744244 phases=1 bus1=1751040B.2 bus2=1751054B.2 linecode=CAB102_3_1_1 length=0.072142 units=km 
New line.mt744251 phases=1 bus1=180289302.2 bus2=1751040B.2 linecode=CAB102_3_1_1 length=0.073125 units=km 
New line.mt744258 phases=1 bus1=1751054B.2 bus2=1751110B.2 linecode=CAB102_3_1_1 length=0.072968 units=km 
New line.mt744265 phases=1 bus1=180289303.2 bus2=1751082B.2 linecode=CAB102_3_1_1 length=0.06515699999999999 units=km 
New line.mt744272 phases=1 bus1=1751068B.2 bus2=180289303.2 linecode=CAB102_3_1_1 length=0.06309300000000001 units=km 
New line.mt744279 phases=1 bus1=1751075B.2 bus2=1751068B.2 linecode=CAB102_3_1_1 length=0.065088 units=km 
New line.mt744286 phases=1 bus1=1751082B.2 bus2=1751089B.2 linecode=CAB102_3_1_1 length=0.06309300000000001 units=km 
New line.mt744293 phases=1 bus1=1751089B.2 bus2=1751096B.2 linecode=CAB102_3_1_1 length=0.058107 units=km 
New line.mt744300 phases=1 bus1=1751096B.2 bus2=180289304.2 linecode=CAB102_3_1_1 length=0.059104 units=km 
New line.mt744307 phases=1 bus1=1751103B.2 bus2=1751075B.2 linecode=CAB102_3_1_1 length=0.07703700000000001 units=km 
New line.mt744314 phases=1 bus1=1751110B.2 bus2=1751103B.2 linecode=CAB102_3_1_1 length=0.072968 units=km 
New line.mt744321 phases=1 bus1=180289304.2 bus2=180289305.2 linecode=CAB202_3_1_1 length=0.115147 units=km 
New line.mt744328 phases=3 bus1=180289292.1.2.3 bus2=180289293.1.2.3 linecode=CAB102_3_3_3 length=0.038399 units=km 
New line.mt744342 phases=3 bus1=1751152B.1.2.3 bus2=180289290.1.2.3 linecode=CAB202_3_3_3 length=0.083979 units=km 
New line.mt744349 phases=3 bus1=1751166B.1.2.3 bus2=1751033B.1.2.3 linecode=CAB202_3_3_3 length=0.060968 units=km 
New line.mt744356 phases=1 bus1=1751166B.3 bus2=1751159B.3 linecode=CAB102_3_1_1 length=0.013446999999999999 units=km 
New line.mt744363 phases=1 bus1=126416469.1 bus2=126416476.1 linecode=CAB103_3_1_1 length=0.07304300000000001 units=km 
New line.mt744370 phases=1 bus1=126416476.1 bus2=126416483.1 linecode=CAB103_3_1_1 length=0.062903 units=km 
New line.mt744377 phases=1 bus1=1751201B.1 bus2=126416469.1 linecode=CAB102_3_1_1 length=0.06837399999999999 units=km 
New line.mt744384 phases=1 bus1=1751208B.1 bus2=1751201B.1 linecode=CAB102_3_1_1 length=0.071131 units=km 
New line.mt744391 phases=1 bus1=126416434.1 bus2=1751222B.1 linecode=CAB102_3_1_1 length=0.070482 units=km 
New line.mt744398 phases=1 bus1=1751222B.1 bus2=1751208B.1 linecode=CAB102_3_1_1 length=0.070482 units=km 
New line.mt744405 phases=1 bus1=1751229B.1 bus2=126416434.1 linecode=CAB102_3_1_1 length=0.067876 units=km 
New line.mt744412 phases=1 bus1=1751236B.1 bus2=1751229B.1 linecode=CAB102_3_1_1 length=0.071432 units=km 
New line.mt744419 phases=1 bus1=126416420.1 bus2=126416427.1 linecode=CAB102_3_1_1 length=0.07174599999999999 units=km 
New line.mt744426 phases=1 bus1=126416427.1 bus2=1751257B.1 linecode=CAB102_3_1_1 length=0.061368 units=km 
New line.mt744433 phases=1 bus1=126416427.1 bus2=1751264B.1 linecode=CAB102_3_1_1 length=0.12399800000000001 units=km 
New line.mt744440 phases=1 bus1=1751257B.1 bus2=1751299B.1 linecode=CAB102_3_1_1 length=0.062064 units=km 
New line.mt744447 phases=1 bus1=1751264B.1 bus2=1751285B.1 linecode=CAB102_3_1_1 length=0.033597999999999996 units=km 
New line.mt744454 phases=1 bus1=1751271B.1 bus2=126416420.1 linecode=CAB102_3_1_1 length=0.066447 units=km 
New line.mt744461 phases=1 bus1=1751278B.1 bus2=1751271B.1 linecode=CAB102_3_1_1 length=0.06527200000000001 units=km 
New line.mt744468 phases=1 bus1=1751285B.1 bus2=1751292B.1 linecode=CAB102_3_1_1 length=0.07375100000000001 units=km 
New line.mt744475 phases=1 bus1=1751292B.1 bus2=126416441.1 linecode=CAB102_3_1_1 length=0.074666 units=km 
New line.mt744482 phases=1 bus1=1751299B.1 bus2=1751306B.1 linecode=CAB102_3_1_1 length=0.065425 units=km 
New line.mt744489 phases=1 bus1=1751306B.1 bus2=4470218B.1 linecode=CAB102_3_1_1 length=0.033224 units=km 
New line.mt744496 phases=1 bus1=126416413.1 bus2=1751327B.1 linecode=CAB102_3_1_1 length=0.06672499999999999 units=km 
New line.mt744503 phases=1 bus1=126416406.1 bus2=126416413.1 linecode=CAB102_3_1_1 length=0.06741 units=km 
New line.mt744510 phases=1 bus1=1751327B.1 bus2=1751334B.1 linecode=CAB102_3_1_1 length=0.065218 units=km 
New line.mt744517 phases=1 bus1=1751334B.1 bus2=1751278B.1 linecode=CAB102_3_1_1 length=0.067971 units=km 
New line.mt744524 phases=1 bus1=1751362B.1 bus2=126416448.1 linecode=CAB102_3_1_1 length=0.065486 units=km 
New line.mt744531 phases=1 bus1=1751369B.1 bus2=1751362B.1 linecode=CAB102_3_1_1 length=0.065486 units=km 
New line.mt744538 phases=1 bus1=126416441.1 bus2=1751369B.1 linecode=CAB102_3_1_1 length=0.065486 units=km 
New line.mt744545 phases=1 bus1=126416441.1 bus2=1751383B.1 linecode=CAB102_3_1_1 length=0.046814999999999996 units=km 
New line.mt744552 phases=1 bus1=1751383B.1 bus2=1838428B.1 linecode=CAB102_3_1_1 length=0.045856 units=km 
New line.mt747317 phases=3 bus1=126409805.1.2.3 bus2=1757886B.1.2.3 linecode=CAB107_3_3_3 length=0.034465 units=km 
New line.mt747324 phases=3 bus1=171452550.1.2.3 bus2=171452551.1.2.3 linecode=CAB202_3_3_3 length=0.088574 units=km 
New line.mt747331 phases=3 bus1=180684543.1.2.3 bus2=1757991B.1.2.3 linecode=CAB107_3_3_3 length=0.026913 units=km 
New line.mt747338 phases=3 bus1=1757872B.1.2.3 bus2=1757984B.1.2.3 linecode=CAB107_3_3_3 length=0.026407 units=km 
New line.mt747345 phases=3 bus1=180590103.1.2.3 bus2=1737635B.1.2.3 linecode=CAB202_3_3_3 length=0.007068 units=km 
New line.mt747352 phases=3 bus1=126409798.1.2.3 bus2=126409805.1.2.3 linecode=CAB107_3_3_3 length=0.036697 units=km 
New line.mt747359 phases=3 bus1=1757886B.1.2.3 bus2=1757970B.1.2.3 linecode=CAB107_3_3_3 length=0.03583 units=km 
New line.mt747366 phases=3 bus1=1757893B.1.2.3 bus2=1757977B.1.2.3 linecode=CAB107_3_3_3 length=0.03583 units=km 
New line.mt747373 phases=3 bus1=1757900B.1.2.3 bus2=1757998B.1.2.3 linecode=CAB107_3_3_3 length=0.025047999999999997 units=km 
New line.mt747380 phases=1 bus1=180684544.1 bus2=1757921B.1 linecode=CAB202_3_1_1 length=0.007068 units=km 
New line.mt747387 phases=3 bus1=180684542.1.2.3 bus2=1758005B.1.2.3 linecode=CAB107_3_3_3 length=0.026407 units=km 
New line.mt747394 phases=3 bus1=1757914B.1.2.3 bus2=1758012B.1.2.3 linecode=CAB107_3_3_3 length=0.030001999999999997 units=km 
New line.mt747401 phases=1 bus1=1757921B.1 bus2=3472795B.1 linecode=CAB202_3_1_1 length=0.03893 units=km 
New line.mt747408 phases=3 bus1=1757928B.1.2.3 bus2=1758019B.1.2.3 linecode=CAB107_3_3_3 length=0.030001999999999997 units=km 
New line.mt747415 phases=3 bus1=1757935B.1.2.3 bus2=1758026B.1.2.3 linecode=CAB107_3_3_3 length=0.030001999999999997 units=km 
New line.mt747422 phases=3 bus1=176155965.1.2.3 bus2=1758033B.1.2.3 linecode=CAB107_3_3_3 length=0.027446 units=km 
New line.mt747429 phases=1 bus1=178277085.1 bus2=1764179B.1 linecode=CAB202_3_1_1 length=0.009215 units=km 
New line.mt747436 phases=3 bus1=1757949B.1.2.3 bus2=1758040B.1.2.3 linecode=CAB207_3_3_3 length=0.030872 units=km 
New line.mt747443 phases=3 bus1=1757956B.1.2.3 bus2=1758047B.1.2.3 linecode=CAB207_3_3_3 length=0.027771 units=km 
New line.mt747450 phases=3 bus1=180684541.1.2.3 bus2=1758054B.1.2.3 linecode=CAB207_3_3_3 length=0.031890999999999996 units=km 
New line.mt747457 phases=3 bus1=1757970B.1.2.3 bus2=1757893B.1.2.3 linecode=CAB107_3_3_3 length=0.036697 units=km 
New line.mt747464 phases=3 bus1=1757977B.1.2.3 bus2=126409812.1.2.3 linecode=CAB107_3_3_3 length=0.037198 units=km 
New line.mt747471 phases=3 bus1=1757984B.1.2.3 bus2=126409798.1.2.3 linecode=CAB107_3_3_3 length=0.026913 units=km 
New line.mt747478 phases=3 bus1=1757991B.1.2.3 bus2=1757872B.1.2.3 linecode=CAB107_3_3_3 length=0.026407 units=km 
New line.mt747485 phases=3 bus1=1757998B.1.2.3 bus2=180684543.1.2.3 linecode=CAB107_3_3_3 length=0.027282 units=km 
New line.mt747492 phases=3 bus1=1758005B.1.2.3 bus2=1757900B.1.2.3 linecode=CAB107_3_3_3 length=0.027771999999999998 units=km 
New line.mt747499 phases=3 bus1=1758012B.1.2.3 bus2=180684542.1.2.3 linecode=CAB107_3_3_3 length=0.028638999999999998 units=km 
New line.mt747506 phases=3 bus1=1758019B.1.2.3 bus2=1757914B.1.2.3 linecode=CAB107_3_3_3 length=0.028638999999999998 units=km 
New line.mt747513 phases=3 bus1=1758026B.1.2.3 bus2=1757928B.1.2.3 linecode=CAB107_3_3_3 length=0.030001999999999997 units=km 
New line.mt747520 phases=3 bus1=1758033B.1.2.3 bus2=1757935B.1.2.3 linecode=CAB107_3_3_3 length=0.030001999999999997 units=km 
New line.mt747527 phases=3 bus1=1758040B.1.2.3 bus2=176155965.1.2.3 linecode=CAB207_3_3_3 length=0.029140999999999997 units=km 
New line.mt747534 phases=3 bus1=1758047B.1.2.3 bus2=1757949B.1.2.3 linecode=CAB207_3_3_3 length=0.032233 units=km 
New line.mt747541 phases=3 bus1=1758054B.1.2.3 bus2=1757956B.1.2.3 linecode=CAB207_3_3_3 length=0.026614000000000002 units=km 
New line.mt747548 phases=3 bus1=1758061B.1.2.3 bus2=3850865B.1.2.3 linecode=CAB207_3_3_3 length=0.092976 units=km 
New line.mt751188 phases=1 bus1=1764088B.1 bus2=1764109B.1 linecode=CAB202_3_1_1 length=0.069801 units=km 
New line.mt751195 phases=1 bus1=1764095B.1 bus2=3472809B.1 linecode=CAB202_3_1_1 length=0.032233 units=km 
New line.mt751202 phases=1 bus1=1764102B.1 bus2=3472802B.1 linecode=CAB202_3_1_1 length=0.036697 units=km 
New line.mt751209 phases=1 bus1=1764109B.1 bus2=1764116B.1 linecode=CAB202_3_1_1 length=0.071162 units=km 
New line.mt751216 phases=1 bus1=1764116B.1 bus2=1822454B.1 linecode=CAB202_3_1_1 length=0.070676 units=km 
New line.mt760484 phases=1 bus1=180384627.2 bus2=3179719B.2 linecode=CAB202_3_1_1 length=0.151532 units=km 
New line.mt769962 phases=1 bus1=1800369B.3 bus2=139961049.3 linecode=CAB103_3_1_1 length=0.043395 units=km 
New line.mt769969 phases=1 bus1=1800418B.3 bus2=139961056.3 linecode=CAB103_3_1_1 length=0.037090000000000005 units=km 
New line.mt777592 phases=1 bus1=1814390B.2 bus2=180609073.2 linecode=CAB103_3_1_1 length=0.06583199999999999 units=km 
New line.mt777599 phases=1 bus1=180609072.2 bus2=1814390B.2 linecode=CAB103_3_1_1 length=0.063601 units=km 
New line.mt779881 phases=1 bus1=1820004B.2 bus2=166723131.2 linecode=CAB202_3_1_1 length=0.062235 units=km 
New line.mt779888 phases=1 bus1=166723130.2 bus2=1820004B.2 linecode=CAB202_3_1_1 length=0.060872 units=km 
New line.mt781050 phases=1 bus1=1822454B.1 bus2=180684545.1 linecode=CAB202_3_1_1 length=0.07029300000000001 units=km 
New line.mt784018 phases=3 bus1=171452555.1.2.3 bus2=1828985B.1.2.3 linecode=CAB103_3_3_3 length=0.058665 units=km 
New line.mt784025 phases=3 bus1=1828964B.1.2.3 bus2=171452555.1.2.3 linecode=CAB103_3_3_3 length=0.069608 units=km 
New line.mt784032 phases=3 bus1=171452554.1.2.3 bus2=1828964B.1.2.3 linecode=CAB103_3_3_3 length=0.061068 units=km 
New line.mt784039 phases=3 bus1=1828978B.1.2.3 bus2=171452554.1.2.3 linecode=CAB103_3_3_3 length=0.067591 units=km 
New line.mt784046 phases=3 bus1=1828985B.1.2.3 bus2=1828992B.1.2.3 linecode=CAB103_3_3_3 length=0.066818 units=km 
New line.mt784053 phases=3 bus1=1828992B.1.2.3 bus2=1829034B.1.2.3 linecode=CAB103_3_3_3 length=0.069973 units=km 
New line.mt784060 phases=3 bus1=1828999B.1.2.3 bus2=1828978B.1.2.3 linecode=CAB103_3_3_3 length=0.057461 units=km 
New line.mt784067 phases=3 bus1=171452553.1.2.3 bus2=1828999B.1.2.3 linecode=CAB103_3_3_3 length=0.065824 units=km 
New line.mt784074 phases=3 bus1=171452552.1.2.3 bus2=171452553.1.2.3 linecode=CAB103_3_3_3 length=0.067235 units=km 
New line.mt784081 phases=3 bus1=171452551.1.2.3 bus2=171452552.1.2.3 linecode=CAB103_3_3_3 length=0.072387 units=km 
New line.mt784088 phases=1 bus1=171452557.1 bus2=1829041B.1 linecode=CAB103_3_1_1 length=0.072242 units=km 
New line.mt784095 phases=3 bus1=1829034B.1.2.3 bus2=171452557.1.2.3 linecode=CAB103_3_3_3 length=0.070577 units=km 
New line.mt784102 phases=1 bus1=1829041B.1 bus2=1829048B.1 linecode=CAB103_3_1_1 length=0.07037099999999999 units=km 
New line.mt784109 phases=1 bus1=1829048B.1 bus2=1829055B.1 linecode=CAB103_3_1_1 length=0.072242 units=km 
New line.mt784116 phases=1 bus1=1829055B.1 bus2=171452558.1 linecode=CAB103_3_1_1 length=0.06786400000000001 units=km 
New line.mt788631 phases=1 bus1=126416455.1 bus2=1838400B.1 linecode=CAB103_3_1_1 length=0.043656999999999994 units=km 
New line.mt788638 phases=1 bus1=1838400B.1 bus2=1838407B.1 linecode=CAB103_3_1_1 length=0.042697000000000006 units=km 
New line.mt788645 phases=1 bus1=1838407B.1 bus2=1838470B.1 linecode=CAB103_3_1_1 length=0.043656999999999994 units=km 
New line.mt788652 phases=1 bus1=1838414B.1 bus2=126416455.1 linecode=CAB102_3_1_1 length=0.045856 units=km 
New line.mt788659 phases=1 bus1=1838421B.1 bus2=1838414B.1 linecode=CAB102_3_1_1 length=0.046548 units=km 
New line.mt788666 phases=1 bus1=1838428B.1 bus2=1838421B.1 linecode=CAB102_3_1_1 length=0.045856 units=km 
New line.mt788673 phases=1 bus1=1838463B.1 bus2=126416462.1 linecode=CAB103_3_1_1 length=0.043942999999999996 units=km 
New line.mt788680 phases=1 bus1=1838470B.1 bus2=1838463B.1 linecode=CAB103_3_1_1 length=0.043656999999999994 units=km 
New line.mt1777017 phases=3 bus1=2687850B.1.2.3 bus2=2687857B.1.2.3 linecode=CABA08_3_3_3 length=0.036201 units=km 
New line.mt1777024 phases=3 bus1=2687857B.1.2.3 bus2=126406886.1.2.3 linecode=CABA08_3_3_3 length=0.041281 units=km 
New line.mt1777038 phases=3 bus1=150350103.1.2.3 bus2=4564025B.1.2.3 linecode=CAB401_3_3_3 length=0.005097000000000001 units=km 
New line.mt1777045 phases=3 bus1=2687871B.1.2.3 bus2=2687878B.1.2.3 linecode=CABA08_3_3_3 length=0.041414 units=km 