New transformer.395189 phases=3 xhl=3.7 %r=1.52 windings=2 %loadloss=1.5222222222222221 %noloadloss=0.37777777777777777
~ wdg=1 bus=181396697.1.2.3 kv=13.8 kva=45 tap=1 conn=delta
~ wdg=2 bus=1797968.1.2.3.4 kv=0.22 kva=45 tap=1 conn=wye
New Reactor.TF395189 phases=1 bus1=1797968.4 R=15 X=0 basefreq=60

New transformer.395301 phases=3 xhl=3.7 %r=1.52 windings=2 %loadloss=1.5222222222222221 %noloadloss=0.37777777777777777
~ wdg=1 bus=149837189.1.2.3 kv=13.8 kva=45 tap=1 conn=delta
~ wdg=2 bus=1798192.1.2.3.4 kv=0.22 kva=45 tap=1 conn=wye
New Reactor.TF395301 phases=1 bus1=1798192.4 R=15 X=0 basefreq=60

New transformer.395308 phases=1 xhl=2.058 xht=2.058 xlt= 1.646 %r=1.42 windings=3 %loadloss=1.42 %noloadloss=0.32
~ wdg=1 bus=158460356.1 kv=7.96 kva=25 tap=1 conn=Wye
~ wdg=2 bus=1798206.1.4 kv=0.24 kva=25 tap=1 conn=wye
~ wdg=3 bus=1798206.4.2 kv=0.24 kva=25 tap=1 conn=wye
New Reactor.TF395308 phases=1 bus1=1798206.4 R=15 X=0 basefreq=60

New transformer.395420 phases=1 xhl=1.625 xht=1.625 xlt= 1.3 %r=1.9 windings=3 %loadloss=1.9 %noloadloss=0.6
~ wdg=1 bus=158460359.1 kv=7.96 kva=5 tap=1 conn=Wye
~ wdg=2 bus=1798430.1.4 kv=0.24 kva=5 tap=1 conn=wye
~ wdg=3 bus=1798430.4.2 kv=0.24 kva=5 tap=1 conn=wye
New Reactor.TF395420 phases=1 bus1=1798430.4 R=15 X=0 basefreq=60

New transformer.395441 phases=1 xhl=1.735 xht=1.735 xlt= 1.388 %r=1.8 windings=3 %loadloss=1.8 %noloadloss=0.45
~ wdg=1 bus=149833108.1 kv=7.96 kva=10 tap=1 conn=Wye
~ wdg=2 bus=1798472.1.4 kv=0.24 kva=10 tap=1 conn=wye
~ wdg=3 bus=1798472.4.2 kv=0.24 kva=10 tap=1 conn=wye
New Reactor.TF395441 phases=1 bus1=1798472.4 R=15 X=0 basefreq=60

New transformer.396344 phases=1 xhl=2.139 xht=2.139 xlt= 1.712 %r=1.293 windings=3 %loadloss=1.3108108108108107 %noloadloss=0.32432432432432434
~ wdg=1 bus=126416581.1 kv=7.96 kva=37 tap=1 conn=Wye
~ wdg=2 bus=1802392.1.4 kv=0.24 kva=37 tap=1 conn=wye
~ wdg=3 bus=1802392.4.2 kv=0.24 kva=37 tap=1 conn=wye
New Reactor.TF396344 phases=1 bus1=1802392.4 R=15 X=0 basefreq=60

New transformer.395413 phases=1 xhl=1.921 xht=1.921 xlt= 1.537 %r=1.6 windings=3 %loadloss=1.6 %noloadloss=0.4
~ wdg=1 bus=176814577.1 kv=7.96 kva=15 tap=1 conn=Wye
~ wdg=2 bus=1798416.1.4 kv=0.24 kva=15 tap=1 conn=wye
~ wdg=3 bus=1798416.4.2 kv=0.24 kva=15 tap=1 conn=wye
New Reactor.TF395413 phases=1 bus1=1798416.4 R=15 X=0 basefreq=60

New transformer.396540 phases=1 xhl=2.058 xht=2.058 xlt= 1.646 %r=1.42 windings=3 %loadloss=1.42 %noloadloss=0.32
~ wdg=1 bus=167503571.1 kv=7.96 kva=25 tap=1 conn=Wye
~ wdg=2 bus=1803631.1.4 kv=0.24 kva=25 tap=1 conn=wye
~ wdg=3 bus=1803631.4.2 kv=0.24 kva=25 tap=1 conn=wye
New Reactor.TF396540 phases=1 bus1=1803631.4 R=15 X=0 basefreq=60

New transformer.397555 phases=1 xhl=1.921 xht=1.921 xlt= 1.537 %r=1.6 windings=3 %loadloss=1.6 %noloadloss=0.4
~ wdg=1 bus=157400385.1 kv=7.96 kva=15 tap=1 conn=Wye
~ wdg=2 bus=1808860.1.4 kv=0.24 kva=15 tap=1 conn=wye
~ wdg=3 bus=1808860.4.2 kv=0.24 kva=15 tap=1 conn=wye
New Reactor.TF397555 phases=1 bus1=1808860.4 R=15 X=0 basefreq=60

New transformer.397240 phases=1 xhl=1.735 xht=1.735 xlt= 1.388 %r=1.8 windings=3 %loadloss=1.8 %noloadloss=0.45
~ wdg=1 bus=180124517.1 kv=7.96 kva=10 tap=1 conn=Wye
~ wdg=2 bus=1807271.1.4 kv=0.24 kva=10 tap=1 conn=wye
~ wdg=3 bus=1807271.4.2 kv=0.24 kva=10 tap=1 conn=wye
New Reactor.TF397240 phases=1 bus1=1807271.4 R=15 X=0 basefreq=60

New transformer.395378 phases=1 xhl=2.139 xht=2.139 xlt= 1.712 %r=1.293 windings=3 %loadloss=1.3108108108108107 %noloadloss=0.32432432432432434
~ wdg=1 bus=158460358.1 kv=7.96 kva=37 tap=1 conn=Wye
~ wdg=2 bus=1798346.1.4 kv=0.24 kva=37 tap=1 conn=wye
~ wdg=3 bus=1798346.4.2 kv=0.24 kva=37 tap=1 conn=wye
New Reactor.TF395378 phases=1 bus1=1798346.4 R=15 X=0 basefreq=60

New transformer.397429 phases=1 xhl=1.921 xht=1.921 xlt= 1.537 %r=1.6 windings=3 %loadloss=1.6 %noloadloss=0.4
~ wdg=1 bus=180124523.1 kv=7.96 kva=15 tap=1 conn=Wye
~ wdg=2 bus=1808286.1.4 kv=0.24 kva=15 tap=1 conn=wye
~ wdg=3 bus=1808286.4.2 kv=0.24 kva=15 tap=1 conn=wye
New Reactor.TF397429 phases=1 bus1=1808286.4 R=15 X=0 basefreq=60

New transformer.397044 phases=1 xhl=1.921 xht=1.921 xlt= 1.537 %r=1.6 windings=3 %loadloss=1.6 %noloadloss=0.4
~ wdg=1 bus=180124521.1 kv=7.96 kva=15 tap=1 conn=Wye
~ wdg=2 bus=1806669.1.4 kv=0.24 kva=15 tap=1 conn=wye
~ wdg=3 bus=1806669.4.2 kv=0.24 kva=15 tap=1 conn=wye
New Reactor.TF397044 phases=1 bus1=1806669.4 R=15 X=0 basefreq=60

New transformer.397506 phases=1 xhl=1.735 xht=1.735 xlt= 1.388 %r=1.8 windings=3 %loadloss=1.8 %noloadloss=0.45
~ wdg=1 bus=157400384.1 kv=7.96 kva=10 tap=1 conn=Wye
~ wdg=2 bus=1808734.1.4 kv=0.24 kva=10 tap=1 conn=wye
~ wdg=3 bus=1808734.4.2 kv=0.24 kva=10 tap=1 conn=wye
New Reactor.TF397506 phases=1 bus1=1808734.4 R=15 X=0 basefreq=60

New transformer.397527 phases=1 xhl=1.921 xht=1.921 xlt= 1.537 %r=1.6 windings=3 %loadloss=1.6 %noloadloss=0.4
~ wdg=1 bus=180124525.1 kv=7.96 kva=15 tap=1 conn=Wye
~ wdg=2 bus=1808776.1.4 kv=0.24 kva=15 tap=1 conn=wye
~ wdg=3 bus=1808776.4.2 kv=0.24 kva=15 tap=1 conn=wye
New Reactor.TF397527 phases=1 bus1=1808776.4 R=15 X=0 basefreq=60

New transformer.396953 phases=1 xhl=1.735 xht=1.735 xlt= 1.388 %r=1.8 windings=3 %loadloss=1.8 %noloadloss=0.45
~ wdg=1 bus=178694087.1 kv=7.96 kva=10 tap=1 conn=Wye
~ wdg=2 bus=1806487.1.4 kv=0.24 kva=10 tap=1 conn=wye
~ wdg=3 bus=1806487.4.2 kv=0.24 kva=10 tap=1 conn=wye
New Reactor.TF396953 phases=1 bus1=1806487.4 R=15 X=0 basefreq=60

New transformer.397121 phases=1 xhl=2.139 xht=2.139 xlt= 1.712 %r=1.293 windings=3 %loadloss=1.3108108108108107 %noloadloss=0.32432432432432434
~ wdg=1 bus=180124519.1 kv=7.96 kva=37 tap=1 conn=Wye
~ wdg=2 bus=1806823.1.4 kv=0.24 kva=37 tap=1 conn=wye
~ wdg=3 bus=1806823.4.2 kv=0.24 kva=37 tap=1 conn=wye
New Reactor.TF397121 phases=1 bus1=1806823.4 R=15 X=0 basefreq=60

New transformer.394503 phases=1 xhl=1.921 xht=1.921 xlt= 1.537 %r=1.6 windings=3 %loadloss=1.6 %noloadloss=0.4
~ wdg=1 bus=139961077.1 kv=7.96 kva=15 tap=1 conn=Wye
~ wdg=2 bus=1795469.1.4 kv=0.24 kva=15 tap=1 conn=wye
~ wdg=3 bus=1795469.4.2 kv=0.24 kva=15 tap=1 conn=wye
New Reactor.TF394503 phases=1 bus1=1795469.4 R=15 X=0 basefreq=60

New transformer.397443 phases=1 xhl=1.735 xht=1.735 xlt= 1.388 %r=1.8 windings=3 %loadloss=1.8 %noloadloss=0.45
~ wdg=1 bus=157400389.1 kv=7.96 kva=10 tap=1 conn=Wye
~ wdg=2 bus=1808342.1.4 kv=0.24 kva=10 tap=1 conn=wye
~ wdg=3 bus=1808342.4.2 kv=0.24 kva=10 tap=1 conn=wye
New Reactor.TF397443 phases=1 bus1=1808342.4 R=15 X=0 basefreq=60

New transformer.396582 phases=1 xhl=1.921 xht=1.921 xlt= 1.537 %r=1.6 windings=3 %loadloss=1.6 %noloadloss=0.4
~ wdg=1 bus=126416560.1 kv=7.96 kva=15 tap=1 conn=Wye
~ wdg=2 bus=1803876.1.4 kv=0.24 kva=15 tap=1 conn=wye
~ wdg=3 bus=1803876.4.2 kv=0.24 kva=15 tap=1 conn=wye
New Reactor.TF396582 phases=1 bus1=1803876.4 R=15 X=0 basefreq=60

New transformer.394559 phases=1 xhl=1.735 xht=1.735 xlt= 1.388 %r=1.8 windings=3 %loadloss=1.8 %noloadloss=0.45
~ wdg=1 bus=149837344.1 kv=7.96 kva=10 tap=1 conn=Wye
~ wdg=2 bus=1795637.1.4 kv=0.24 kva=10 tap=1 conn=wye
~ wdg=3 bus=1795637.4.2 kv=0.24 kva=10 tap=1 conn=wye
New Reactor.TF394559 phases=1 bus1=1795637.4 R=15 X=0 basefreq=60

New transformer.394860 phases=1 xhl=1.921 xht=1.921 xlt= 1.537 %r=1.6 windings=3 %loadloss=1.6 %noloadloss=0.4
~ wdg=1 bus=182113300.1 kv=7.96 kva=15 tap=1 conn=Wye
~ wdg=2 bus=1796540.1.4 kv=0.24 kva=15 tap=1 conn=wye
~ wdg=3 bus=1796540.4.2 kv=0.24 kva=15 tap=1 conn=wye
New Reactor.TF394860 phases=1 bus1=1796540.4 R=15 X=0 basefreq=60

New transformer.397786 phases=1 xhl=1.735 xht=1.735 xlt= 1.388 %r=1.8 windings=3 %loadloss=1.8 %noloadloss=0.45
~ wdg=1 bus=170717854.1 kv=7.96 kva=10 tap=1 conn=Wye
~ wdg=2 bus=1810386.1.4 kv=0.24 kva=10 tap=1 conn=wye
~ wdg=3 bus=1810386.4.2 kv=0.24 kva=10 tap=1 conn=wye
New Reactor.TF397786 phases=1 bus1=1810386.4 R=15 X=0 basefreq=60

New transformer.392956 phases=1 xhl=1.735 xht=1.735 xlt= 1.388 %r=1.8 windings=3 %loadloss=1.8 %noloadloss=0.45
~ wdg=1 bus=126414859.1 kv=7.96 kva=10 tap=1 conn=Wye
~ wdg=2 bus=1792375.1.4 kv=0.24 kva=10 tap=1 conn=wye
~ wdg=3 bus=1792375.4.2 kv=0.24 kva=10 tap=1 conn=wye
New Reactor.TF392956 phases=1 bus1=1792375.4 R=15 X=0 basefreq=60

New transformer.394755 phases=1 xhl=1.921 xht=1.921 xlt= 1.537 %r=1.6 windings=3 %loadloss=1.6 %noloadloss=0.4
~ wdg=1 bus=182113308.1 kv=7.96 kva=15 tap=1 conn=Wye
~ wdg=2 bus=1796337.1.4 kv=0.24 kva=15 tap=1 conn=wye
~ wdg=3 bus=1796337.4.2 kv=0.24 kva=15 tap=1 conn=wye
New Reactor.TF394755 phases=1 bus1=1796337.4 R=15 X=0 basefreq=60

New transformer.394741 phases=1 xhl=2.139 xht=2.139 xlt= 1.712 %r=1.293 windings=3 %loadloss=1.3108108108108107 %noloadloss=0.32432432432432434
~ wdg=1 bus=149837341.1 kv=7.96 kva=37 tap=1 conn=Wye
~ wdg=2 bus=1796309.1.4 kv=0.24 kva=37 tap=1 conn=wye
~ wdg=3 bus=1796309.4.2 kv=0.24 kva=37 tap=1 conn=wye
New Reactor.TF394741 phases=1 bus1=1796309.4 R=15 X=0 basefreq=60

New transformer.394720 phases=1 xhl=1.921 xht=1.921 xlt= 1.537 %r=1.6 windings=3 %loadloss=1.6 %noloadloss=0.4
~ wdg=1 bus=149837343.1 kv=7.96 kva=15 tap=1 conn=Wye
~ wdg=2 bus=1796267.1.4 kv=0.24 kva=15 tap=1 conn=wye
~ wdg=3 bus=1796267.4.2 kv=0.24 kva=15 tap=1 conn=wye
New Reactor.TF394720 phases=1 bus1=1796267.4 R=15 X=0 basefreq=60

New transformer.395007 phases=1 xhl=1.921 xht=1.921 xlt= 1.537 %r=1.6 windings=3 %loadloss=1.6 %noloadloss=0.4
~ wdg=1 bus=149837199.1 kv=7.96 kva=15 tap=1 conn=Wye
~ wdg=2 bus=1797520.1.4 kv=0.24 kva=15 tap=1 conn=wye
~ wdg=3 bus=1797520.4.2 kv=0.24 kva=15 tap=1 conn=wye
New Reactor.TF395007 phases=1 bus1=1797520.4 R=15 X=0 basefreq=60

New transformer.397639 phases=1 xhl=1.735 xht=1.735 xlt= 1.388 %r=1.8 windings=3 %loadloss=1.8 %noloadloss=0.45
~ wdg=1 bus=180950363.1 kv=7.96 kva=10 tap=1 conn=Wye
~ wdg=2 bus=1809567.1.4 kv=0.24 kva=10 tap=1 conn=wye
~ wdg=3 bus=1809567.4.2 kv=0.24 kva=10 tap=1 conn=wye
New Reactor.TF397639 phases=1 bus1=1809567.4 R=15 X=0 basefreq=60

New transformer.394468 phases=1 xhl=2.139 xht=2.139 xlt= 1.712 %r=1.293 windings=3 %loadloss=1.3108108108108107 %noloadloss=0.32432432432432434
~ wdg=1 bus=139961084.1 kv=7.96 kva=37 tap=1 conn=Wye
~ wdg=2 bus=1795399.1.4 kv=0.24 kva=37 tap=1 conn=wye
~ wdg=3 bus=1795399.4.2 kv=0.24 kva=37 tap=1 conn=wye
New Reactor.TF394468 phases=1 bus1=1795399.4 R=15 X=0 basefreq=60

New transformer.686550 phases=1 xhl=1.921 xht=1.921 xlt= 1.537 %r=1.6 windings=3 %loadloss=1.6 %noloadloss=0.4
~ wdg=1 bus=176347005.1 kv=7.96 kva=15 tap=1 conn=Wye
~ wdg=2 bus=5508108.1.4 kv=0.24 kva=15 tap=1 conn=wye
~ wdg=3 bus=5508108.4.2 kv=0.24 kva=15 tap=1 conn=wye
New Reactor.TF686550 phases=1 bus1=5508108.4 R=15 X=0 basefreq=60

New transformer.433192 phases=1 xhl=2.058 xht=2.058 xlt= 1.646 %r=1.42 windings=3 %loadloss=1.42 %noloadloss=0.32
~ wdg=1 bus=126416413.1 kv=7.96 kva=25 tap=1 conn=Wye
~ wdg=2 bus=2265225.1.4 kv=0.24 kva=25 tap=1 conn=wye
~ wdg=3 bus=2265225.4.2 kv=0.24 kva=25 tap=1 conn=wye
New Reactor.TF433192 phases=1 bus1=2265225.4 R=15 X=0 basefreq=60

New transformer.433178 phases=1 xhl=2.139 xht=2.139 xlt= 1.712 %r=1.293 windings=3 %loadloss=1.3108108108108107 %noloadloss=0.32432432432432434
~ wdg=1 bus=126416434.1 kv=7.96 kva=37 tap=1 conn=Wye
~ wdg=2 bus=2265120.1.4 kv=0.24 kva=37 tap=1 conn=wye
~ wdg=3 bus=2265120.4.2 kv=0.24 kva=37 tap=1 conn=wye
New Reactor.TF433178 phases=1 bus1=2265120.4 R=15 X=0 basefreq=60

New transformer.433199 phases=1 xhl=2.058 xht=2.058 xlt= 1.646 %r=1.42 windings=3 %loadloss=1.42 %noloadloss=0.32
~ wdg=1 bus=126416448.1 kv=7.96 kva=25 tap=1 conn=Wye
~ wdg=2 bus=2265253.1.4 kv=0.24 kva=25 tap=1 conn=wye
~ wdg=3 bus=2265253.4.2 kv=0.24 kva=25 tap=1 conn=wye
New Reactor.TF433199 phases=1 bus1=2265253.4 R=15 X=0 basefreq=60

New transformer.433171 phases=1 xhl=2.058 xht=2.058 xlt= 1.646 %r=1.42 windings=3 %loadloss=1.42 %noloadloss=0.32
~ wdg=1 bus=126416469.1 kv=7.96 kva=25 tap=1 conn=Wye
~ wdg=2 bus=2265078.1.4 kv=0.24 kva=25 tap=1 conn=wye
~ wdg=3 bus=2265078.4.2 kv=0.24 kva=25 tap=1 conn=wye
New Reactor.TF433171 phases=1 bus1=2265078.4 R=15 X=0 basefreq=60

New transformer.435964 phases=1 xhl=2.058 xht=2.058 xlt= 1.646 %r=1.42 windings=3 %loadloss=1.42 %noloadloss=0.32
~ wdg=1 bus=178277086.1 kv=7.96 kva=25 tap=1 conn=Wye
~ wdg=2 bus=2281857.1.4 kv=0.24 kva=25 tap=1 conn=wye
~ wdg=3 bus=2281857.4.2 kv=0.24 kva=25 tap=1 conn=wye
New Reactor.TF435964 phases=1 bus1=2281857.4 R=15 X=0 basefreq=60

New transformer.433185 phases=1 xhl=2.058 xht=2.058 xlt= 1.646 %r=1.42 windings=3 %loadloss=1.42 %noloadloss=0.32
~ wdg=1 bus=126416420.1 kv=7.96 kva=25 tap=1 conn=Wye
~ wdg=2 bus=2265162.1.4 kv=0.24 kva=25 tap=1 conn=wye
~ wdg=3 bus=2265162.4.2 kv=0.24 kva=25 tap=1 conn=wye
New Reactor.TF433185 phases=1 bus1=2265162.4 R=15 X=0 basefreq=60

New transformer.395098 phases=1 xhl=1.735 xht=1.735 xlt= 1.388 %r=1.8 windings=3 %loadloss=1.8 %noloadloss=0.45
~ wdg=1 bus=180882339.2 kv=7.96 kva=10 tap=1 conn=Wye
~ wdg=2 bus=1797786.1.4 kv=0.24 kva=10 tap=1 conn=wye
~ wdg=3 bus=1797786.4.2 kv=0.24 kva=10 tap=1 conn=wye
New Reactor.TF395098 phases=1 bus1=1797786.4 R=15 X=0 basefreq=60

New transformer.395553 phases=1 xhl=1.921 xht=1.921 xlt= 1.537 %r=1.6 windings=3 %loadloss=1.6 %noloadloss=0.4
~ wdg=1 bus=126413396.2 kv=7.96 kva=15 tap=1 conn=Wye
~ wdg=2 bus=1798696.1.4 kv=0.24 kva=15 tap=1 conn=wye
~ wdg=3 bus=1798696.4.2 kv=0.24 kva=15 tap=1 conn=wye
New Reactor.TF395553 phases=1 bus1=1798696.4 R=15 X=0 basefreq=60

New transformer.395798 phases=1 xhl=1.735 xht=1.735 xlt= 1.388 %r=1.8 windings=3 %loadloss=1.8 %noloadloss=0.45
~ wdg=1 bus=172264756.2 kv=7.96 kva=10 tap=1 conn=Wye
~ wdg=2 bus=1799375.1.4 kv=0.24 kva=10 tap=1 conn=wye
~ wdg=3 bus=1799375.4.2 kv=0.24 kva=10 tap=1 conn=wye
New Reactor.TF395798 phases=1 bus1=1799375.4 R=15 X=0 basefreq=60

New transformer.395322 phases=1 xhl=1.735 xht=1.735 xlt= 1.388 %r=1.8 windings=3 %loadloss=1.8 %noloadloss=0.45
~ wdg=1 bus=159082687.2 kv=7.96 kva=10 tap=1 conn=Wye
~ wdg=2 bus=1798234.1.4 kv=0.24 kva=10 tap=1 conn=wye
~ wdg=3 bus=1798234.4.2 kv=0.24 kva=10 tap=1 conn=wye
New Reactor.TF395322 phases=1 bus1=1798234.4 R=15 X=0 basefreq=60

New transformer.395616 phases=1 xhl=1.735 xht=1.735 xlt= 1.388 %r=1.8 windings=3 %loadloss=1.8 %noloadloss=0.45
~ wdg=1 bus=159082689.2 kv=7.96 kva=10 tap=1 conn=Wye
~ wdg=2 bus=1798822.1.4 kv=0.24 kva=10 tap=1 conn=wye
~ wdg=3 bus=1798822.4.2 kv=0.24 kva=10 tap=1 conn=wye
New Reactor.TF395616 phases=1 bus1=1798822.4 R=15 X=0 basefreq=60

New transformer.396379 phases=1 xhl=1.735 xht=1.735 xlt= 1.388 %r=1.8 windings=3 %loadloss=1.8 %noloadloss=0.45
~ wdg=1 bus=159082693.2 kv=7.96 kva=10 tap=1 conn=Wye
~ wdg=2 bus=1802805.1.4 kv=0.24 kva=10 tap=1 conn=wye
~ wdg=3 bus=1802805.4.2 kv=0.24 kva=10 tap=1 conn=wye
New Reactor.TF396379 phases=1 bus1=1802805.4 R=15 X=0 basefreq=60

New transformer.396603 phases=1 xhl=1.735 xht=1.735 xlt= 1.388 %r=1.8 windings=3 %loadloss=1.8 %noloadloss=0.45
~ wdg=1 bus=126413424.2 kv=7.96 kva=10 tap=1 conn=Wye
~ wdg=2 bus=1803988.1.4 kv=0.24 kva=10 tap=1 conn=wye
~ wdg=3 bus=1803988.4.2 kv=0.24 kva=10 tap=1 conn=wye
New Reactor.TF396603 phases=1 bus1=1803988.4 R=15 X=0 basefreq=60

New transformer.396267 phases=1 xhl=1.735 xht=1.735 xlt= 1.388 %r=1.8 windings=3 %loadloss=1.8 %noloadloss=0.45
~ wdg=1 bus=126413431.2 kv=7.96 kva=10 tap=1 conn=Wye
~ wdg=2 bus=1802007.1.4 kv=0.24 kva=10 tap=1 conn=wye
~ wdg=3 bus=1802007.4.2 kv=0.24 kva=10 tap=1 conn=wye
New Reactor.TF396267 phases=1 bus1=1802007.4 R=15 X=0 basefreq=60

New transformer.395105 phases=1 xhl=1.921 xht=1.921 xlt= 1.537 %r=1.6 windings=3 %loadloss=1.6 %noloadloss=0.4
~ wdg=1 bus=149837197.2 kv=7.96 kva=15 tap=1 conn=Wye
~ wdg=2 bus=1797800.1.4 kv=0.24 kva=15 tap=1 conn=wye
~ wdg=3 bus=1797800.4.2 kv=0.24 kva=15 tap=1 conn=wye
New Reactor.TF395105 phases=1 bus1=1797800.4 R=15 X=0 basefreq=60

New transformer.395315 phases=1 xhl=1.735 xht=1.735 xlt= 1.388 %r=1.8 windings=3 %loadloss=1.8 %noloadloss=0.45
~ wdg=1 bus=170310093.2 kv=7.96 kva=10 tap=1 conn=Wye
~ wdg=2 bus=1798220.1.4 kv=0.24 kva=10 tap=1 conn=wye
~ wdg=3 bus=1798220.4.2 kv=0.24 kva=10 tap=1 conn=wye
New Reactor.TF395315 phases=1 bus1=1798220.4 R=15 X=0 basefreq=60

New transformer.393264 phases=1 xhl=1.921 xht=1.921 xlt= 1.537 %r=1.6 windings=3 %loadloss=1.6 %noloadloss=0.4
~ wdg=1 bus=169506538.2 kv=7.96 kva=15 tap=1 conn=Wye
~ wdg=2 bus=1792991.1.4 kv=0.24 kva=15 tap=1 conn=wye
~ wdg=3 bus=1792991.4.2 kv=0.24 kva=15 tap=1 conn=wye
New Reactor.TF393264 phases=1 bus1=1792991.4 R=15 X=0 basefreq=60

New transformer.394097 phases=1 xhl=1.735 xht=1.735 xlt= 1.388 %r=1.8 windings=3 %loadloss=1.8 %noloadloss=0.45
~ wdg=1 bus=126414761.2 kv=7.96 kva=10 tap=1 conn=Wye
~ wdg=2 bus=1794657.1.4 kv=0.24 kva=10 tap=1 conn=wye
~ wdg=3 bus=1794657.4.2 kv=0.24 kva=10 tap=1 conn=wye
New Reactor.TF394097 phases=1 bus1=1794657.4 R=15 X=0 basefreq=60

New transformer.393327 phases=1 xhl=1.921 xht=1.921 xlt= 1.537 %r=1.6 windings=3 %loadloss=1.6 %noloadloss=0.4
~ wdg=1 bus=169506533.2 kv=7.96 kva=15 tap=1 conn=Wye
~ wdg=2 bus=1793117.1.4 kv=0.24 kva=15 tap=1 conn=wye
~ wdg=3 bus=1793117.4.2 kv=0.24 kva=15 tap=1 conn=wye
New Reactor.TF393327 phases=1 bus1=1793117.4 R=15 X=0 basefreq=60

New transformer.393607 phases=1 xhl=1.921 xht=1.921 xlt= 1.537 %r=1.6 windings=3 %loadloss=1.6 %noloadloss=0.4
~ wdg=1 bus=169506534.2 kv=7.96 kva=15 tap=1 conn=Wye
~ wdg=2 bus=1793677.1.4 kv=0.24 kva=15 tap=1 conn=wye
~ wdg=3 bus=1793677.4.2 kv=0.24 kva=15 tap=1 conn=wye
New Reactor.TF393607 phases=1 bus1=1793677.4 R=15 X=0 basefreq=60

New transformer.394062 phases=1 xhl=1.921 xht=1.921 xlt= 1.537 %r=1.6 windings=3 %loadloss=1.6 %noloadloss=0.4
~ wdg=1 bus=166723273.2 kv=7.96 kva=15 tap=1 conn=Wye
~ wdg=2 bus=1794587.1.4 kv=0.24 kva=15 tap=1 conn=wye
~ wdg=3 bus=1794587.4.2 kv=0.24 kva=15 tap=1 conn=wye
New Reactor.TF394062 phases=1 bus1=1794587.4 R=15 X=0 basefreq=60

New transformer.394090 phases=1 xhl=1.625 xht=1.625 xlt= 1.3 %r=1.9 windings=3 %loadloss=1.9 %noloadloss=0.6
~ wdg=1 bus=169506500.2 kv=7.96 kva=5 tap=1 conn=Wye
~ wdg=2 bus=1794643.1.4 kv=0.24 kva=5 tap=1 conn=wye
~ wdg=3 bus=1794643.4.2 kv=0.24 kva=5 tap=1 conn=wye
New Reactor.TF394090 phases=1 bus1=1794643.4 R=15 X=0 basefreq=60

New transformer.394510 phases=1 xhl=1.921 xht=1.921 xlt= 1.537 %r=1.6 windings=3 %loadloss=1.6 %noloadloss=0.4
~ wdg=1 bus=159498640.2 kv=7.96 kva=15 tap=1 conn=Wye
~ wdg=2 bus=1795483.1.4 kv=0.24 kva=15 tap=1 conn=wye
~ wdg=3 bus=1795483.4.2 kv=0.24 kva=15 tap=1 conn=wye
New Reactor.TF394510 phases=1 bus1=1795483.4 R=15 X=0 basefreq=60

New transformer.393992 phases=1 xhl=1.625 xht=1.625 xlt= 1.3 %r=1.9 windings=3 %loadloss=1.9 %noloadloss=0.6
~ wdg=1 bus=166723255.2 kv=7.96 kva=5 tap=1 conn=Wye
~ wdg=2 bus=1794447.1.4 kv=0.24 kva=5 tap=1 conn=wye
~ wdg=3 bus=1794447.4.2 kv=0.24 kva=5 tap=1 conn=wye
New Reactor.TF393992 phases=1 bus1=1794447.4 R=15 X=0 basefreq=60

New transformer.394111 phases=1 xhl=1.921 xht=1.921 xlt= 1.537 %r=1.6 windings=3 %loadloss=1.6 %noloadloss=0.4
~ wdg=1 bus=180279533.2 kv=7.96 kva=15 tap=1 conn=Wye
~ wdg=2 bus=1794685.1.4 kv=0.24 kva=15 tap=1 conn=wye
~ wdg=3 bus=1794685.4.2 kv=0.24 kva=15 tap=1 conn=wye
New Reactor.TF394111 phases=1 bus1=1794685.4 R=15 X=0 basefreq=60

New transformer.393936 phases=1 xhl=2.058 xht=2.058 xlt= 1.646 %r=1.42 windings=3 %loadloss=1.42 %noloadloss=0.32
~ wdg=1 bus=169506523.2 kv=7.96 kva=25 tap=1 conn=Wye
~ wdg=2 bus=1794335.1.4 kv=0.24 kva=25 tap=1 conn=wye
~ wdg=3 bus=1794335.4.2 kv=0.24 kva=25 tap=1 conn=wye
New Reactor.TF393936 phases=1 bus1=1794335.4 R=15 X=0 basefreq=60

New transformer.394538 phases=1 xhl=1.921 xht=1.921 xlt= 1.537 %r=1.6 windings=3 %loadloss=1.6 %noloadloss=0.4
~ wdg=1 bus=178837742.2 kv=7.96 kva=15 tap=1 conn=Wye
~ wdg=2 bus=1795539.1.4 kv=0.24 kva=15 tap=1 conn=wye
~ wdg=3 bus=1795539.4.2 kv=0.24 kva=15 tap=1 conn=wye
New Reactor.TF394538 phases=1 bus1=1795539.4 R=15 X=0 basefreq=60

New transformer.394300 phases=1 xhl=1.625 xht=1.625 xlt= 1.3 %r=1.9 windings=3 %loadloss=1.9 %noloadloss=0.6
~ wdg=1 bus=151922589.2 kv=7.96 kva=5 tap=1 conn=Wye
~ wdg=2 bus=1795063.1.4 kv=0.24 kva=5 tap=1 conn=wye
~ wdg=3 bus=1795063.4.2 kv=0.24 kva=5 tap=1 conn=wye
New Reactor.TF394300 phases=1 bus1=1795063.4 R=15 X=0 basefreq=60

New transformer.394223 phases=1 xhl=2.139 xht=2.139 xlt= 1.712 %r=1.293 windings=3 %loadloss=1.3108108108108107 %noloadloss=0.32432432432432434
~ wdg=1 bus=151922591.2 kv=7.96 kva=37 tap=1 conn=Wye
~ wdg=2 bus=1794909.1.4 kv=0.24 kva=37 tap=1 conn=wye
~ wdg=3 bus=1794909.4.2 kv=0.24 kva=37 tap=1 conn=wye
New Reactor.TF394223 phases=1 bus1=1794909.4 R=15 X=0 basefreq=60

New transformer.393502 phases=1 xhl=1.921 xht=1.921 xlt= 1.537 %r=1.6 windings=3 %loadloss=1.6 %noloadloss=0.4
~ wdg=1 bus=126414698.2 kv=7.96 kva=15 tap=1 conn=Wye
~ wdg=2 bus=1793467.1.4 kv=0.24 kva=15 tap=1 conn=wye
~ wdg=3 bus=1793467.4.2 kv=0.24 kva=15 tap=1 conn=wye
New Reactor.TF393502 phases=1 bus1=1793467.4 R=15 X=0 basefreq=60

New transformer.394055 phases=1 xhl=2.139 xht=2.139 xlt= 1.712 %r=1.293 windings=3 %loadloss=1.3108108108108107 %noloadloss=0.32432432432432434
~ wdg=1 bus=180279536.2 kv=7.96 kva=37 tap=1 conn=Wye
~ wdg=2 bus=1794573.1.4 kv=0.24 kva=37 tap=1 conn=wye
~ wdg=3 bus=1794573.4.2 kv=0.24 kva=37 tap=1 conn=wye
New Reactor.TF394055 phases=1 bus1=1794573.4 R=15 X=0 basefreq=60

New transformer.394027 phases=1 xhl=1.921 xht=1.921 xlt= 1.537 %r=1.6 windings=3 %loadloss=1.6 %noloadloss=0.4
~ wdg=1 bus=159498637.2 kv=7.96 kva=15 tap=1 conn=Wye
~ wdg=2 bus=1794517.1.4 kv=0.24 kva=15 tap=1 conn=wye
~ wdg=3 bus=1794517.4.2 kv=0.24 kva=15 tap=1 conn=wye
New Reactor.TF394027 phases=1 bus1=1794517.4 R=15 X=0 basefreq=60

New transformer.394888 phases=1 xhl=1.735 xht=1.735 xlt= 1.388 %r=1.8 windings=3 %loadloss=1.8 %noloadloss=0.45
~ wdg=1 bus=149837201.2 kv=7.96 kva=10 tap=1 conn=Wye
~ wdg=2 bus=1796596.1.4 kv=0.24 kva=10 tap=1 conn=wye
~ wdg=3 bus=1796596.4.2 kv=0.24 kva=10 tap=1 conn=wye
New Reactor.TF394888 phases=1 bus1=1796596.4 R=15 X=0 basefreq=60

New transformer.394706 phases=1 xhl=2.139 xht=2.139 xlt= 1.712 %r=1.293 windings=3 %loadloss=1.3108108108108107 %noloadloss=0.32432432432432434
~ wdg=1 bus=180384629.2 kv=7.96 kva=37 tap=1 conn=Wye
~ wdg=2 bus=1796239.1.4 kv=0.24 kva=37 tap=1 conn=wye
~ wdg=3 bus=1796239.4.2 kv=0.24 kva=37 tap=1 conn=wye
New Reactor.TF394706 phases=1 bus1=1796239.4 R=15 X=0 basefreq=60

New transformer.394195 phases=1 xhl=2.058 xht=2.058 xlt= 1.646 %r=1.42 windings=3 %loadloss=1.42 %noloadloss=0.32
~ wdg=1 bus=166723251.2 kv=7.96 kva=25 tap=1 conn=Wye
~ wdg=2 bus=1794853.1.4 kv=0.24 kva=25 tap=1 conn=wye
~ wdg=3 bus=1794853.4.2 kv=0.24 kva=25 tap=1 conn=wye
New Reactor.TF394195 phases=1 bus1=1794853.4 R=15 X=0 basefreq=60

New transformer.394181 phases=1 xhl=2.139 xht=2.139 xlt= 1.712 %r=1.293 windings=3 %loadloss=1.3108108108108107 %noloadloss=0.32432432432432434
~ wdg=1 bus=169506525.2 kv=7.96 kva=37 tap=1 conn=Wye
~ wdg=2 bus=1794825.1.4 kv=0.24 kva=37 tap=1 conn=wye
~ wdg=3 bus=1794825.4.2 kv=0.24 kva=37 tap=1 conn=wye
New Reactor.TF394181 phases=1 bus1=1794825.4 R=15 X=0 basefreq=60

New transformer.393852 phases=1 xhl=1.735 xht=1.735 xlt= 1.388 %r=1.8 windings=3 %loadloss=1.8 %noloadloss=0.45
~ wdg=1 bus=178132250.2 kv=7.96 kva=10 tap=1 conn=Wye
~ wdg=2 bus=1794167.1.4 kv=0.24 kva=10 tap=1 conn=wye
~ wdg=3 bus=1794167.4.2 kv=0.24 kva=10 tap=1 conn=wye
New Reactor.TF393852 phases=1 bus1=1794167.4 R=15 X=0 basefreq=60

New transformer.394328 phases=1 xhl=1.735 xht=1.735 xlt= 1.388 %r=1.8 windings=3 %loadloss=1.8 %noloadloss=0.45
~ wdg=1 bus=163140911.2 kv=7.96 kva=10 tap=1 conn=Wye
~ wdg=2 bus=1795119.1.4 kv=0.24 kva=10 tap=1 conn=wye
~ wdg=3 bus=1795119.4.2 kv=0.24 kva=10 tap=1 conn=wye
New Reactor.TF394328 phases=1 bus1=1795119.4 R=15 X=0 basefreq=60

New transformer.394384 phases=1 xhl=2.058 xht=2.058 xlt= 1.646 %r=1.42 windings=3 %loadloss=1.42 %noloadloss=0.32
~ wdg=1 bus=159498639.2 kv=7.96 kva=25 tap=1 conn=Wye
~ wdg=2 bus=1795231.1.4 kv=0.24 kva=25 tap=1 conn=wye
~ wdg=3 bus=1795231.4.2 kv=0.24 kva=25 tap=1 conn=wye
New Reactor.TF394384 phases=1 bus1=1795231.4 R=15 X=0 basefreq=60

New transformer.394132 phases=1 xhl=1.735 xht=1.735 xlt= 1.388 %r=1.8 windings=3 %loadloss=1.8 %noloadloss=0.45
~ wdg=1 bus=166723272.2 kv=7.96 kva=10 tap=1 conn=Wye
~ wdg=2 bus=1794727.1.4 kv=0.24 kva=10 tap=1 conn=wye
~ wdg=3 bus=1794727.4.2 kv=0.24 kva=10 tap=1 conn=wye
New Reactor.TF394132 phases=1 bus1=1794727.4 R=15 X=0 basefreq=60

New transformer.393488 phases=1 xhl=2.139 xht=2.139 xlt= 1.712 %r=1.293 windings=3 %loadloss=1.3108108108108107 %noloadloss=0.32432432432432434
~ wdg=1 bus=126414712.2 kv=7.96 kva=37 tap=1 conn=Wye
~ wdg=2 bus=1793439.1.4 kv=0.24 kva=37 tap=1 conn=wye
~ wdg=3 bus=1793439.4.2 kv=0.24 kva=37 tap=1 conn=wye
New Reactor.TF393488 phases=1 bus1=1793439.4 R=15 X=0 basefreq=60

New transformer.393999 phases=1 xhl=2.139 xht=2.139 xlt= 1.712 %r=1.293 windings=3 %loadloss=1.3108108108108107 %noloadloss=0.32432432432432434
~ wdg=1 bus=166723258.2 kv=7.96 kva=37 tap=1 conn=Wye
~ wdg=2 bus=1794461.1.4 kv=0.24 kva=37 tap=1 conn=wye
~ wdg=3 bus=1794461.4.2 kv=0.24 kva=37 tap=1 conn=wye
New Reactor.TF393999 phases=1 bus1=1794461.4 R=15 X=0 basefreq=60

New transformer.394104 phases=1 xhl=1.735 xht=1.735 xlt= 1.388 %r=1.8 windings=3 %loadloss=1.8 %noloadloss=0.45
~ wdg=1 bus=166723275.2 kv=7.96 kva=10 tap=1 conn=Wye
~ wdg=2 bus=1794671.1.4 kv=0.24 kva=10 tap=1 conn=wye
~ wdg=3 bus=1794671.4.2 kv=0.24 kva=10 tap=1 conn=wye
New Reactor.TF394104 phases=1 bus1=1794671.4 R=15 X=0 basefreq=60

New transformer.394664 phases=1 xhl=1.921 xht=1.921 xlt= 1.537 %r=1.6 windings=3 %loadloss=1.6 %noloadloss=0.4
~ wdg=1 bus=159498644.2 kv=7.96 kva=15 tap=1 conn=Wye
~ wdg=2 bus=1796008.1.4 kv=0.24 kva=15 tap=1 conn=wye
~ wdg=3 bus=1796008.4.2 kv=0.24 kva=15 tap=1 conn=wye
New Reactor.TF394664 phases=1 bus1=1796008.4 R=15 X=0 basefreq=60

New transformer.393775 phases=1 xhl=1.921 xht=1.921 xlt= 1.537 %r=1.6 windings=3 %loadloss=1.6 %noloadloss=0.4
~ wdg=1 bus=169506536.2 kv=7.96 kva=15 tap=1 conn=Wye
~ wdg=2 bus=1794013.1.4 kv=0.24 kva=15 tap=1 conn=wye
~ wdg=3 bus=1794013.4.2 kv=0.24 kva=15 tap=1 conn=wye
New Reactor.TF393775 phases=1 bus1=1794013.4 R=15 X=0 basefreq=60

New transformer.394524 phases=1 xhl=2.139 xht=2.139 xlt= 1.712 %r=1.293 windings=3 %loadloss=1.3108108108108107 %noloadloss=0.32432432432432434
~ wdg=1 bus=180384626.2 kv=7.96 kva=37 tap=1 conn=Wye
~ wdg=2 bus=1795511.1.4 kv=0.24 kva=37 tap=1 conn=wye
~ wdg=3 bus=1795511.4.2 kv=0.24 kva=37 tap=1 conn=wye
New Reactor.TF394524 phases=1 bus1=1795511.4 R=15 X=0 basefreq=60

New transformer.394671 phases=1 xhl=2.058 xht=2.058 xlt= 1.646 %r=1.42 windings=3 %loadloss=1.42 %noloadloss=0.32
~ wdg=1 bus=178837738.2 kv=7.96 kva=25 tap=1 conn=Wye
~ wdg=2 bus=1796022.1.4 kv=0.24 kva=25 tap=1 conn=wye
~ wdg=3 bus=1796022.4.2 kv=0.24 kva=25 tap=1 conn=wye
New Reactor.TF394671 phases=1 bus1=1796022.4 R=15 X=0 basefreq=60

New transformer.397814 phases=1 xhl=1.625 xht=1.625 xlt= 1.3 %r=1.9 windings=3 %loadloss=1.9 %noloadloss=0.6
~ wdg=1 bus=180953672.2 kv=7.96 kva=5 tap=1 conn=Wye
~ wdg=2 bus=1810568.1.4 kv=0.24 kva=5 tap=1 conn=wye
~ wdg=3 bus=1810568.4.2 kv=0.24 kva=5 tap=1 conn=wye
New Reactor.TF397814 phases=1 bus1=1810568.4 R=15 X=0 basefreq=60

New transformer.398017 phases=1 xhl=1.921 xht=1.921 xlt= 1.537 %r=1.6 windings=3 %loadloss=1.6 %noloadloss=0.4
~ wdg=1 bus=159082697.2 kv=7.96 kva=15 tap=1 conn=Wye
~ wdg=2 bus=1811702.1.4 kv=0.24 kva=15 tap=1 conn=wye
~ wdg=3 bus=1811702.4.2 kv=0.24 kva=15 tap=1 conn=wye
New Reactor.TF398017 phases=1 bus1=1811702.4 R=15 X=0 basefreq=60

New transformer.394139 phases=1 xhl=1.921 xht=1.921 xlt= 1.537 %r=1.6 windings=3 %loadloss=1.6 %noloadloss=0.4
~ wdg=1 bus=169506502.2 kv=7.96 kva=15 tap=1 conn=Wye
~ wdg=2 bus=1794741.1.4 kv=0.24 kva=15 tap=1 conn=wye
~ wdg=3 bus=1794741.4.2 kv=0.24 kva=15 tap=1 conn=wye
New Reactor.TF394139 phases=1 bus1=1794741.4 R=15 X=0 basefreq=60

New transformer.394398 phases=1 xhl=1.921 xht=1.921 xlt= 1.537 %r=1.6 windings=3 %loadloss=1.6 %noloadloss=0.4
~ wdg=1 bus=159498645.2 kv=7.96 kva=15 tap=1 conn=Wye
~ wdg=2 bus=1795259.1.4 kv=0.24 kva=15 tap=1 conn=wye
~ wdg=3 bus=1795259.4.2 kv=0.24 kva=15 tap=1 conn=wye
New Reactor.TF394398 phases=1 bus1=1795259.4 R=15 X=0 basefreq=60

New transformer.394615 phases=1 xhl=1.735 xht=1.735 xlt= 1.388 %r=1.8 windings=3 %loadloss=1.8 %noloadloss=0.45
~ wdg=1 bus=182270690.2 kv=7.96 kva=10 tap=1 conn=Wye
~ wdg=2 bus=1795791.1.4 kv=0.24 kva=10 tap=1 conn=wye
~ wdg=3 bus=1795791.4.2 kv=0.24 kva=10 tap=1 conn=wye
New Reactor.TF394615 phases=1 bus1=1795791.4 R=15 X=0 basefreq=60

New transformer.394958 phases=1 xhl=1.921 xht=1.921 xlt= 1.537 %r=1.6 windings=3 %loadloss=1.6 %noloadloss=0.4
~ wdg=1 bus=148913326.2 kv=7.96 kva=15 tap=1 conn=Wye
~ wdg=2 bus=1796897.1.4 kv=0.24 kva=15 tap=1 conn=wye
~ wdg=3 bus=1796897.4.2 kv=0.24 kva=15 tap=1 conn=wye
New Reactor.TF394958 phases=1 bus1=1796897.4 R=15 X=0 basefreq=60

New transformer.394286 phases=1 xhl=1.921 xht=1.921 xlt= 1.537 %r=1.6 windings=3 %loadloss=1.6 %noloadloss=0.4
~ wdg=1 bus=169506498.2 kv=7.96 kva=15 tap=1 conn=Wye
~ wdg=2 bus=1795035.1.4 kv=0.24 kva=15 tap=1 conn=wye
~ wdg=3 bus=1795035.4.2 kv=0.24 kva=15 tap=1 conn=wye
New Reactor.TF394286 phases=1 bus1=1795035.4 R=15 X=0 basefreq=60

New transformer.394573 phases=1 xhl=1.921 xht=1.921 xlt= 1.537 %r=1.6 windings=3 %loadloss=1.6 %noloadloss=0.4
~ wdg=1 bus=159498642.2 kv=7.96 kva=15 tap=1 conn=Wye