New load.bt1811756-1 phases=3 bus=1002442262.1.2.3.4 model=2 kv=0.22 kw=8.941372716894978 pf=0.92 conn=delta status=variable vmaxpu=1.5 vminpu=0.92 daily=RUR1_9
New load.bt1811756-2 phases=3 bus=1002442262.1.2.3.4 model=3 kv=0.22 kw=8.941372716894978 pf=0.92 conn=delta status=variable vmaxpu=1.5 vminpu=0.92 daily=RUR1_9
New load.bt1811811-1 phases=3 bus=1002435192.1.2.3.4 model=2 kv=0.22 kw=9.854204337899546 pf=0.92 conn=delta status=variable vmaxpu=1.5 vminpu=0.92 daily=RUR1_9
New load.bt1811811-2 phases=3 bus=1002435192.1.2.3.4 model=3 kv=0.22 kw=9.854204337899546 pf=0.92 conn=delta status=variable vmaxpu=1.5 vminpu=0.92 daily=RUR1_9
New load.bt1811891-1 phases=3 bus=1003298082.1.2.3.4 model=2 kv=0.22 kw=10.082107876712328 pf=0.92 conn=delta status=variable vmaxpu=1.5 vminpu=0.92 daily=RUR1_19
New load.bt1811891-2 phases=3 bus=1003298082.1.2.3.4 model=3 kv=0.22 kw=10.082107876712328 pf=0.92 conn=delta status=variable vmaxpu=1.5 vminpu=0.92 daily=RUR1_19
New load.bt1811902-1 phases=3 bus=1003238127.1.2.3.4 model=2 kv=0.22 kw=5.074509132420091 pf=0.92 conn=delta status=variable vmaxpu=1.5 vminpu=0.92 daily=RUR1_9
New load.bt1811902-2 phases=3 bus=1003238127.1.2.3.4 model=3 kv=0.22 kw=5.074509132420091 pf=0.92 conn=delta status=variable vmaxpu=1.5 vminpu=0.92 daily=RUR1_9
New load.bt1812656-1 phases=3 bus=1003251406.1.2.3.4 model=2 kv=0.22 kw=2.247784817351598 pf=0.92 conn=delta status=variable vmaxpu=1.5 vminpu=0.92 daily=COM1_21
New load.bt1812656-2 phases=3 bus=1003251406.1.2.3.4 model=3 kv=0.22 kw=2.247784817351598 pf=0.92 conn=delta status=variable vmaxpu=1.5 vminpu=0.92 daily=COM1_21
New load.bt1812678-1 phases=1 bus=1002441611.1.2.4 model=2 kv=0.24 kw=2.899939497716895 pf=0.92 conn=delta status=variable vmaxpu=1.5 vminpu=0.92 daily=COM1_6
New load.bt1812678-2 phases=1 bus=1002441611.1.2.4 model=3 kv=0.24 kw=2.899939497716895 pf=0.92 conn=delta status=variable vmaxpu=1.5 vminpu=0.92 daily=COM1_6
New load.bt1812784-1 phases=1 bus=1003370714.1.2.4 model=2 kv=0.24 kw=3.5686278538812783 pf=0.92 conn=delta status=variable vmaxpu=1.5 vminpu=0.92 daily=RUR1_9
New load.bt1812784-2 phases=1 bus=1003370714.1.2.4 model=3 kv=0.24 kw=3.5686278538812783 pf=0.92 conn=delta status=variable vmaxpu=1.5 vminpu=0.92 daily=RUR1_9
New load.bt1813291-1 phases=3 bus=1002434800.1.2.3.4 model=2 kv=0.22 kw=1.3825850456621005 pf=0.92 conn=delta status=variable vmaxpu=1.5 vminpu=0.92 daily=RUR1_9
New load.bt1813291-2 phases=3 bus=1002434800.1.2.3.4 model=3 kv=0.22 kw=1.3825850456621005 pf=0.92 conn=delta status=variable vmaxpu=1.5 vminpu=0.92 daily=RUR1_9
New load.bt1813843-1 phases=3 bus=1002432462.1.2.3.4 model=2 kv=0.22 kw=1.3786101598173517 pf=0.92 conn=delta status=variable vmaxpu=1.5 vminpu=0.92 daily=COM1_21
New load.bt1813843-2 phases=3 bus=1002432462.1.2.3.4 model=3 kv=0.22 kw=1.3786101598173517 pf=0.92 conn=delta status=variable vmaxpu=1.5 vminpu=0.92 daily=COM1_21
New load.bt1813915-1 phases=3 bus=1002435185.1.2.3.4 model=2 kv=0.22 kw=1.689068493150685 pf=0.92 conn=delta status=variable vmaxpu=1.5 vminpu=0.92 daily=RUR1_9
New load.bt1813915-2 phases=3 bus=1002435185.1.2.3.4 model=3 kv=0.22 kw=1.689068493150685 pf=0.92 conn=delta status=variable vmaxpu=1.5 vminpu=0.92 daily=RUR1_9
New load.bt1814041-1 phases=3 bus=1002435094.1.2.3.4 model=2 kv=0.22 kw=1.1085719178082192 pf=0.92 conn=delta status=variable vmaxpu=1.5 vminpu=0.92 daily=RUR1_9
New load.bt1814041-2 phases=3 bus=1002435094.1.2.3.4 model=3 kv=0.22 kw=1.1085719178082192 pf=0.92 conn=delta status=variable vmaxpu=1.5 vminpu=0.92 daily=RUR1_9
New load.bt1814058-1 phases=1 bus=1002434373.1.2.4 model=2 kv=0.24 kw=0.6140901826484018 pf=0.92 conn=delta status=variable vmaxpu=1.5 vminpu=0.92 daily=COM1_21
New load.bt1814058-2 phases=1 bus=1002434373.1.2.4 model=3 kv=0.24 kw=0.6140901826484018 pf=0.92 conn=delta status=variable vmaxpu=1.5 vminpu=0.92 daily=COM1_21
New load.bt1814136-1 phases=1 bus=1002435108.1.2.4 model=2 kv=0.24 kw=1.0136883561643835 pf=0.92 conn=delta status=variable vmaxpu=1.5 vminpu=0.92 daily=RUR1_9
New load.bt1814136-2 phases=1 bus=1002435108.1.2.4 model=3 kv=0.24 kw=1.0136883561643835 pf=0.92 conn=delta status=variable vmaxpu=1.5 vminpu=0.92 daily=RUR1_9
New load.bt1814272-1 phases=1 bus=1002431741.1.2.4 model=2 kv=0.24 kw=1.5862294520547948 pf=0.92 conn=delta status=variable vmaxpu=1.5 vminpu=0.92 daily=COM1_21
New load.bt1814272-2 phases=1 bus=1002431741.1.2.4 model=3 kv=0.24 kw=1.5862294520547948 pf=0.92 conn=delta status=variable vmaxpu=1.5 vminpu=0.92 daily=COM1_21
New load.bt1814996-1 phases=1 bus=1002432595.1.2.4 model=2 kv=0.24 kw=2.735902397260274 pf=0.92 conn=delta status=variable vmaxpu=1.5 vminpu=0.92 daily=COM1_21
New load.bt1814996-2 phases=1 bus=1002432595.1.2.4 model=3 kv=0.24 kw=2.735902397260274 pf=0.92 conn=delta status=variable vmaxpu=1.5 vminpu=0.92 daily=COM1_21
New load.bt1815026-1 phases=1 bus=1002433330.1.2.4 model=2 kv=0.24 kw=0.7422665525114155 pf=0.92 conn=delta status=variable vmaxpu=1.5 vminpu=0.92 daily=COM1_6
New load.bt1815026-2 phases=1 bus=1002433330.1.2.4 model=3 kv=0.24 kw=0.7422665525114155 pf=0.92 conn=delta status=variable vmaxpu=1.5 vminpu=0.92 daily=COM1_6
New load.bt1815245-1 phases=1 bus=1002432567.1.2.4 model=2 kv=0.24 kw=1.1639691780821917 pf=0.92 conn=delta status=variable vmaxpu=1.5 vminpu=0.92 daily=RUR1_9
New load.bt1815245-2 phases=1 bus=1002432567.1.2.4 model=3 kv=0.24 kw=1.1639691780821917 pf=0.92 conn=delta status=variable vmaxpu=1.5 vminpu=0.92 daily=RUR1_9
New load.bt1815370-1 phases=1 bus=1002432021.1.2.4 model=2 kv=0.24 kw=1.182232876712329 pf=0.92 conn=delta status=variable vmaxpu=1.5 vminpu=0.92 daily=RUR1_9
New load.bt1815370-2 phases=1 bus=1002432021.1.2.4 model=3 kv=0.24 kw=1.182232876712329 pf=0.92 conn=delta status=variable vmaxpu=1.5 vminpu=0.92 daily=RUR1_9
New load.bt1815773-1 phases=3 bus=1003240675.1.2.3.4 model=2 kv=0.22 kw=0.834216894977169 pf=0.92 conn=delta status=variable vmaxpu=1.5 vminpu=0.92 daily=COM1_6
New load.bt1815773-2 phases=3 bus=1003240675.1.2.3.4 model=3 kv=0.22 kw=0.834216894977169 pf=0.92 conn=delta status=variable vmaxpu=1.5 vminpu=0.92 daily=COM1_6
New load.bt1816186-1 phases=3 bus=1002431965.1.2.3.4 model=2 kv=0.22 kw=1.096435502283105 pf=0.92 conn=delta status=variable vmaxpu=1.5 vminpu=0.92 daily=RUR1_19
New load.bt1816186-2 phases=3 bus=1002431965.1.2.3.4 model=3 kv=0.22 kw=1.096435502283105 pf=0.92 conn=delta status=variable vmaxpu=1.5 vminpu=0.92 daily=RUR1_19
New load.bt1816238-1 phases=1 bus=1002433505.1.2.4 model=2 kv=0.24 kw=0.7791375570776257 pf=0.92 conn=delta status=variable vmaxpu=1.5 vminpu=0.92 daily=RUR1_9
New load.bt1816238-2 phases=1 bus=1002433505.1.2.4 model=3 kv=0.24 kw=0.7791375570776257 pf=0.92 conn=delta status=variable vmaxpu=1.5 vminpu=0.92 daily=RUR1_9
New load.bt1816983-1 phases=3 bus=1003239324.1.2.3.4 model=2 kv=0.22 kw=0.655324200913242 pf=0.92 conn=delta status=variable vmaxpu=1.5 vminpu=0.92 daily=RES1_18
New load.bt1816983-2 phases=3 bus=1003239324.1.2.3.4 model=3 kv=0.22 kw=0.655324200913242 pf=0.92 conn=delta status=variable vmaxpu=1.5 vminpu=0.92 daily=RES1_18
New load.bt1818059-1 phases=3 bus=1002438482.1.2.3.4 model=2 kv=0.22 kw=1.1716952054794523 pf=0.92 conn=delta status=variable vmaxpu=1.5 vminpu=0.92 daily=RUR1_9
New load.bt1818059-2 phases=3 bus=1002438482.1.2.3.4 model=3 kv=0.22 kw=1.1716952054794523 pf=0.92 conn=delta status=variable vmaxpu=1.5 vminpu=0.92 daily=RUR1_9
New load.bt1818510-1 phases=1 bus=1003238400.1.2.4 model=2 kv=0.24 kw=0.9224155251141553 pf=0.92 conn=delta status=variable vmaxpu=1.5 vminpu=0.92 daily=RUR1_9
New load.bt1818510-2 phases=1 bus=1003238400.1.2.4 model=3 kv=0.24 kw=0.9224155251141553 pf=0.92 conn=delta status=variable vmaxpu=1.5 vminpu=0.92 daily=RUR1_9
New load.bt1818545-1 phases=1 bus=1002442766.1.2.4 model=2 kv=0.24 kw=0.7129994292237442 pf=0.92 conn=delta status=variable vmaxpu=1.5 vminpu=0.92 daily=RUR1_9
New load.bt1818545-2 phases=1 bus=1002442766.1.2.4 model=3 kv=0.24 kw=0.7129994292237442 pf=0.92 conn=delta status=variable vmaxpu=1.5 vminpu=0.92 daily=RUR1_9
New load.bt1818805-1 phases=1 bus=1002434702.1.2.4 model=2 kv=0.24 kw=0.7476215753424658 pf=0.92 conn=delta status=variable vmaxpu=1.5 vminpu=0.92 daily=COM1_21
New load.bt1818805-2 phases=1 bus=1002434702.1.2.4 model=3 kv=0.24 kw=0.7476215753424658 pf=0.92 conn=delta status=variable vmaxpu=1.5 vminpu=0.92 daily=COM1_21
New load.bt1818971-1 phases=3 bus=1002432630.1.2.3.4 model=2 kv=0.22 kw=0.9653356164383562 pf=0.92 conn=delta status=variable vmaxpu=1.5 vminpu=0.92 daily=RUR1_19
New load.bt1818971-2 phases=3 bus=1002432630.1.2.3.4 model=3 kv=0.22 kw=0.9653356164383562 pf=0.92 conn=delta status=variable vmaxpu=1.5 vminpu=0.92 daily=RUR1_19
New load.bt1819112-1 phases=1 bus=1002432182.1.2.4 model=2 kv=0.24 kw=0.5912414383561645 pf=0.92 conn=delta status=variable vmaxpu=1.5 vminpu=0.92 daily=RUR1_9
New load.bt1819112-2 phases=1 bus=1002432182.1.2.4 model=3 kv=0.24 kw=0.5912414383561645 pf=0.92 conn=delta status=variable vmaxpu=1.5 vminpu=0.92 daily=RUR1_9
New load.bt1819407-1 phases=1 bus=1002432679.1.2.4 model=2 kv=0.24 kw=0.6636832191780822 pf=0.92 conn=delta status=variable vmaxpu=1.5 vminpu=0.92 daily=RUR1_19
New load.bt1819407-2 phases=1 bus=1002432679.1.2.4 model=3 kv=0.24 kw=0.6636832191780822 pf=0.92 conn=delta status=variable vmaxpu=1.5 vminpu=0.92 daily=RUR1_19
New load.bt1820476-1 phases=3 bus=1003256600.1.2.3.4 model=2 kv=0.22 kw=0.40365981735159817 pf=0.92 conn=delta status=variable vmaxpu=1.5 vminpu=0.92 daily=COM1_6
New load.bt1820476-2 phases=3 bus=1003256600.1.2.3.4 model=3 kv=0.22 kw=0.40365981735159817 pf=0.92 conn=delta status=variable vmaxpu=1.5 vminpu=0.92 daily=COM1_6
New load.bt1821008-1 phases=3 bus=1002437481.1.2.3.4 model=2 kv=0.22 kw=1.063744292237443 pf=0.92 conn=delta status=variable vmaxpu=1.5 vminpu=0.92 daily=COM1_6
New load.bt1821008-2 phases=3 bus=1002437481.1.2.3.4 model=3 kv=0.22 kw=1.063744292237443 pf=0.92 conn=delta status=variable vmaxpu=1.5 vminpu=0.92 daily=COM1_6
New load.bt1822033-1 phases=1 bus=1002431839.1.2.4 model=2 kv=0.24 kw=0.43033162100456623 pf=0.92 conn=delta status=variable vmaxpu=1.5 vminpu=0.92 daily=COM1_21
New load.bt1822033-2 phases=1 bus=1002431839.1.2.4 model=3 kv=0.24 kw=0.43033162100456623 pf=0.92 conn=delta status=variable vmaxpu=1.5 vminpu=0.92 daily=COM1_21
New load.bt1822259-1 phases=1 bus=1002434408.1.2.4 model=2 kv=0.24 kw=0.49647716894977173 pf=0.92 conn=delta status=variable vmaxpu=1.5 vminpu=0.92 daily=COM1_6
New load.bt1822259-2 phases=1 bus=1002434408.1.2.4 model=3 kv=0.24 kw=0.49647716894977173 pf=0.92 conn=delta status=variable vmaxpu=1.5 vminpu=0.92 daily=COM1_6
New load.bt1822852-1 phases=1 bus=1002433106.1.2.4 model=2 kv=0.24 kw=0.5276752283105023 pf=0.92 conn=delta status=variable vmaxpu=1.5 vminpu=0.92 daily=COM1_6
New load.bt1822852-2 phases=1 bus=1002433106.1.2.4 model=3 kv=0.24 kw=0.5276752283105023 pf=0.92 conn=delta status=variable vmaxpu=1.5 vminpu=0.92 daily=COM1_6
New load.bt1823476-1 phases=1 bus=1003256579.1.2.4 model=2 kv=0.24 kw=0.4936038812785388 pf=0.92 conn=delta status=variable vmaxpu=1.5 vminpu=0.92 daily=RES1_3
New load.bt1823476-2 phases=1 bus=1003256579.1.2.4 model=3 kv=0.24 kw=0.4936038812785388 pf=0.92 conn=delta status=variable vmaxpu=1.5 vminpu=0.92 daily=RES1_3
New load.bt1824584-1 phases=1 bus=1002456402.1.2.4 model=2 kv=0.24 kw=0.4646666666666667 pf=0.92 conn=delta status=variable vmaxpu=1.5 vminpu=0.92 daily=RUR1_9
New load.bt1824584-2 phases=1 bus=1002456402.1.2.4 model=3 kv=0.24 kw=0.4646666666666667 pf=0.92 conn=delta status=variable vmaxpu=1.5 vminpu=0.92 daily=RUR1_9
New load.bt1824929-1 phases=1 bus=1002442066.1.2.4 model=2 kv=0.24 kw=0.4471986301369863 pf=0.92 conn=delta status=variable vmaxpu=1.5 vminpu=0.92 daily=COM1_6
New load.bt1824929-2 phases=1 bus=1002442066.1.2.4 model=3 kv=0.24 kw=0.4471986301369863 pf=0.92 conn=delta status=variable vmaxpu=1.5 vminpu=0.92 daily=COM1_6
New load.bt1825097-1 phases=1 bus=1002431517.1.2.4 model=2 kv=0.24 kw=0.3529394977168949 pf=0.92 conn=delta status=variable vmaxpu=1.5 vminpu=0.92 daily=RUR1_9
New load.bt1825097-2 phases=1 bus=1002431517.1.2.4 model=3 kv=0.24 kw=0.3529394977168949 pf=0.92 conn=delta status=variable vmaxpu=1.5 vminpu=0.92 daily=RUR1_9
New load.bt1825406-1 phases=1 bus=1002433309.1.2.4 model=2 kv=0.24 kw=0.37266837899543387 pf=0.92 conn=delta status=variable vmaxpu=1.5 vminpu=0.92 daily=RUR1_9
New load.bt1825406-2 phases=1 bus=1002433309.1.2.4 model=3 kv=0.24 kw=0.37266837899543387 pf=0.92 conn=delta status=variable vmaxpu=1.5 vminpu=0.92 daily=RUR1_9
New load.bt1825978-1 phases=1 bus=1003256579.1.2.4 model=2 kv=0.24 kw=0.3711055936073059 pf=0.92 conn=delta status=variable vmaxpu=1.5 vminpu=0.92 daily=RES1_3
New load.bt1825978-2 phases=1 bus=1003256579.1.2.4 model=3 kv=0.24 kw=0.3711055936073059 pf=0.92 conn=delta status=variable vmaxpu=1.5 vminpu=0.92 daily=RES1_3
New load.bt1826281-1 phases=1 bus=1002432476.1.2.4 model=2 kv=0.24 kw=0.46519634703196344 pf=0.92 conn=delta status=variable vmaxpu=1.5 vminpu=0.92 daily=RUR1_19
New load.bt1826281-2 phases=1 bus=1002432476.1.2.4 model=3 kv=0.24 kw=0.46519634703196344 pf=0.92 conn=delta status=variable vmaxpu=1.5 vminpu=0.92 daily=RUR1_19
New load.bt1827124-1 phases=1 bus=1002431853.1.2.4 model=2 kv=0.24 kw=0.33508675799086757 pf=0.92 conn=delta status=variable vmaxpu=1.5 vminpu=0.92 daily=RUR1_9
New load.bt1827124-2 phases=1 bus=1002431853.1.2.4 model=3 kv=0.24 kw=0.33508675799086757 pf=0.92 conn=delta status=variable vmaxpu=1.5 vminpu=0.92 daily=RUR1_9
New load.bt1828252-1 phases=1 bus=1003239737.1.2.4 model=2 kv=0.24 kw=0.5301364155251143 pf=0.92 conn=delta status=variable vmaxpu=1.5 vminpu=0.92 daily=RUR1_19
New load.bt1828252-2 phases=1 bus=1003239737.1.2.4 model=3 kv=0.24 kw=0.5301364155251143 pf=0.92 conn=delta status=variable vmaxpu=1.5 vminpu=0.92 daily=RUR1_19
New load.bt1829449-1 phases=1 bus=1002441436.1.2.4 model=2 kv=0.24 kw=0.3501934931506849 pf=0.92 conn=delta status=variable vmaxpu=1.5 vminpu=0.92 daily=RUR1_9
New load.bt1829449-2 phases=1 bus=1002441436.1.2.4 model=3 kv=0.24 kw=0.3501934931506849 pf=0.92 conn=delta status=variable vmaxpu=1.5 vminpu=0.92 daily=RUR1_9
New load.bt1829822-1 phases=3 bus=1002435990.1.2.3.4 model=2 kv=0.22 kw=0.44143778538812783 pf=0.92 conn=delta status=variable vmaxpu=1.5 vminpu=0.92 daily=RES1_3
New load.bt1829822-2 phases=3 bus=1002435990.1.2.3.4 model=3 kv=0.22 kw=0.44143778538812783 pf=0.92 conn=delta status=variable vmaxpu=1.5 vminpu=0.92 daily=RES1_3
New load.bt1830595-1 phases=1 bus=1002434926.1.2.4 model=2 kv=0.24 kw=0.3342094748858447 pf=0.92 conn=delta status=variable vmaxpu=1.5 vminpu=0.92 daily=RUR1_9
New load.bt1830595-2 phases=1 bus=1002434926.1.2.4 model=3 kv=0.24 kw=0.3342094748858447 pf=0.92 conn=delta status=variable vmaxpu=1.5 vminpu=0.92 daily=RUR1_9
New load.bt1831240-1 phases=3 bus=1003263880.1.2.3.4 model=2 kv=0.22 kw=0.5021244292237442 pf=0.92 conn=delta status=variable vmaxpu=1.5 vminpu=0.92 daily=RES1_18
New load.bt1831240-2 phases=3 bus=1003263880.1.2.3.4 model=3 kv=0.22 kw=0.5021244292237442 pf=0.92 conn=delta status=variable vmaxpu=1.5 vminpu=0.92 daily=RES1_18
New load.bt1831848-1 phases=1 bus=1002432448.1.2.4 model=2 kv=0.24 kw=0.3762631278538813 pf=0.92 conn=delta status=variable vmaxpu=1.5 vminpu=0.92 daily=RUR1_19
New load.bt1831848-2 phases=1 bus=1002432448.1.2.4 model=3 kv=0.24 kw=0.3762631278538813 pf=0.92 conn=delta status=variable vmaxpu=1.5 vminpu=0.92 daily=RUR1_19
New load.bt1832913-1 phases=1 bus=1003238967.1.2.4 model=2 kv=0.24 kw=0.2426609589041096 pf=0.92 conn=delta status=variable vmaxpu=1.5 vminpu=0.92 daily=RES1_18
New load.bt1832913-2 phases=1 bus=1003238967.1.2.4 model=3 kv=0.24 kw=0.2426609589041096 pf=0.92 conn=delta status=variable vmaxpu=1.5 vminpu=0.92 daily=RES1_18
New load.bt1832978-1 phases=1 bus=1004536760.2.3.4 model=2 kv=0.22 kw=0.3336221461187215 pf=0.92 conn=delta status=variable vmaxpu=1.5 vminpu=0.92 daily=RES1_18
New load.bt1832978-2 phases=1 bus=1004536760.2.3.4 model=3 kv=0.22 kw=0.3336221461187215 pf=0.92 conn=delta status=variable vmaxpu=1.5 vminpu=0.92 daily=RES1_18
New load.bt1834922-1 phases=1 bus=1002434401.1.2.4 model=2 kv=0.24 kw=0.11545262557077626 pf=0.92 conn=delta status=variable vmaxpu=1.5 vminpu=0.92 daily=RUR1_19
New load.bt1834922-2 phases=1 bus=1002434401.1.2.4 model=3 kv=0.24 kw=0.11545262557077626 pf=0.92 conn=delta status=variable vmaxpu=1.5 vminpu=0.92 daily=RUR1_19
New load.bt1836259-1 phases=1 bus=1003239380.2.3.4 model=2 kv=0.22 kw=0.34075684931506844 pf=0.92 conn=delta status=variable vmaxpu=1.5 vminpu=0.92 daily=RES1_18
New load.bt1836259-2 phases=1 bus=1003239380.2.3.4 model=3 kv=0.22 kw=0.34075684931506844 pf=0.92 conn=delta status=variable vmaxpu=1.5 vminpu=0.92 daily=RES1_18
New load.bt1838745-1 phases=1 bus=1003268395.3.1.4 model=2 kv=0.22 kw=0.22419121004566211 pf=0.92 conn=delta status=variable vmaxpu=1.5 vminpu=0.92 daily=RES1_18
New load.bt1838745-2 phases=1 bus=1003268395.3.1.4 model=3 kv=0.22 kw=0.22419121004566211 pf=0.92 conn=delta status=variable vmaxpu=1.5 vminpu=0.92 daily=RES1_18
New load.bt1840572-1 phases=1 bus=1002432392.1.2.4 model=2 kv=0.24 kw=0.4407859589041096 pf=0.92 conn=delta status=variable vmaxpu=1.5 vminpu=0.92 daily=RUR1_9
New load.bt1840572-2 phases=1 bus=1002432392.1.2.4 model=3 kv=0.24 kw=0.4407859589041096 pf=0.92 conn=delta status=variable vmaxpu=1.5 vminpu=0.92 daily=RUR1_9
New load.bt1841579-1 phases=1 bus=1002434471.1.2.4 model=2 kv=0.24 kw=0.09238013698630138 pf=0.92 conn=delta status=variable vmaxpu=1.5 vminpu=0.92 daily=RES1_3
New load.bt1841579-2 phases=1 bus=1002434471.1.2.4 model=3 kv=0.24 kw=0.09238013698630138 pf=0.92 conn=delta status=variable vmaxpu=1.5 vminpu=0.92 daily=RES1_3
New load.bt1841930-1 phases=3 bus=1002434562.1.2.3.4 model=2 kv=0.22 kw=0.27449029680365294 pf=0.92 conn=delta status=variable vmaxpu=1.5 vminpu=0.92 daily=RUR1_19
New load.bt1841930-2 phases=3 bus=1002434562.1.2.3.4 model=3 kv=0.22 kw=0.27449029680365294 pf=0.92 conn=delta status=variable vmaxpu=1.5 vminpu=0.92 daily=RUR1_19
New load.bt1842394-1 phases=1 bus=1002434261.1.2.4 model=2 kv=0.24 kw=0.07161872146118721 pf=0.92 conn=delta status=variable vmaxpu=1.5 vminpu=0.92 daily=RUR1_19
New load.bt1842394-2 phases=1 bus=1002434261.1.2.4 model=3 kv=0.24 kw=0.07161872146118721 pf=0.92 conn=delta status=variable vmaxpu=1.5 vminpu=0.92 daily=RUR1_19
New load.bt1843385-1 phases=1 bus=1002432119.1.2.4 model=2 kv=0.24 kw=0.2429925799086758 pf=0.92 conn=delta status=variable vmaxpu=1.5 vminpu=0.92 daily=RUR1_19
New load.bt1843385-2 phases=1 bus=1002432119.1.2.4 model=3 kv=0.24 kw=0.2429925799086758 pf=0.92 conn=delta status=variable vmaxpu=1.5 vminpu=0.92 daily=RUR1_19
New load.bt1847325-1 phases=1 bus=1003297004.1.2.4 model=2 kv=0.24 kw=0.21365239726027396 pf=0.92 conn=delta status=variable vmaxpu=1.5 vminpu=0.92 daily=RES1_3
New load.bt1847325-2 phases=1 bus=1003297004.1.2.4 model=3 kv=0.24 kw=0.21365239726027396 pf=0.92 conn=delta status=variable vmaxpu=1.5 vminpu=0.92 daily=RES1_3
New load.bt1851864-1 phases=1 bus=1004536319.1.2.4 model=2 kv=0.24 kw=0.24770490867579908 pf=0.92 conn=delta status=variable vmaxpu=1.5 vminpu=0.92 daily=RUR1_9
New load.bt1851864-2 phases=1 bus=1004536319.1.2.4 model=3 kv=0.24 kw=0.24770490867579908 pf=0.92 conn=delta status=variable vmaxpu=1.5 vminpu=0.92 daily=RUR1_9
New load.bt1853465-1 phases=1 bus=1004079786.1.2.4 model=2 kv=0.24 kw=0.22825057077625568 pf=0.92 conn=delta status=variable vmaxpu=1.5 vminpu=0.92 daily=COM1_6
New load.bt1853465-2 phases=1 bus=1004079786.1.2.4 model=3 kv=0.24 kw=0.22825057077625568 pf=0.92 conn=delta status=variable vmaxpu=1.5 vminpu=0.92 daily=COM1_6
New load.bt1853963-1 phases=1 bus=1002437404.1.2.4 model=2 kv=0.24 kw=0.23103538812785387 pf=0.92 conn=delta status=variable vmaxpu=1.5 vminpu=0.92 daily=RUR1_9
New load.bt1853963-2 phases=1 bus=1002437404.1.2.4 model=3 kv=0.24 kw=0.23103538812785387 pf=0.92 conn=delta status=variable vmaxpu=1.5 vminpu=0.92 daily=RUR1_9
New load.bt1854487-1 phases=3 bus=1002432777.1.2.3.4 model=2 kv=0.22 kw=0.19896404109589041 pf=0.92 conn=delta status=variable vmaxpu=1.5 vminpu=0.92 daily=RUR1_19
New load.bt1854487-2 phases=3 bus=1002432777.1.2.3.4 model=3 kv=0.22 kw=0.19896404109589041 pf=0.92 conn=delta status=variable vmaxpu=1.5 vminpu=0.92 daily=RUR1_19
New load.bt1856504-1 phases=1 bus=1002432812.1.2.4 model=2 kv=0.24 kw=0.2843196347031963 pf=0.92 conn=delta status=variable vmaxpu=1.5 vminpu=0.92 daily=RUR1_19
New load.bt1856504-2 phases=1 bus=1002432812.1.2.4 model=3 kv=0.24 kw=0.2843196347031963 pf=0.92 conn=delta status=variable vmaxpu=1.5 vminpu=0.92 daily=RUR1_19
New load.bt1857215-1 phases=3 bus=1002433470.1.2.3.4 model=2 kv=0.22 kw=0.3950536529680365 pf=0.92 conn=delta status=variable vmaxpu=1.5 vminpu=0.92 daily=RUR1_9
New load.bt1857215-2 phases=3 bus=1002433470.1.2.3.4 model=3 kv=0.22 kw=0.3950536529680365 pf=0.92 conn=delta status=variable vmaxpu=1.5 vminpu=0.92 daily=RUR1_9
New load.bt1861037-1 phases=1 bus=1002431860.1.2.4 model=2 kv=0.24 kw=0.2919509132420092 pf=0.92 conn=delta status=variable vmaxpu=1.5 vminpu=0.92 daily=RUR1_19
New load.bt1861037-2 phases=1 bus=1002431860.1.2.4 model=3 kv=0.24 kw=0.2919509132420092 pf=0.92 conn=delta status=variable vmaxpu=1.5 vminpu=0.92 daily=RUR1_19
New load.bt1861099-1 phases=1 bus=1002438727.1.2.4 model=2 kv=0.24 kw=0.04909646118721461 pf=0.92 conn=delta status=variable vmaxpu=1.5 vminpu=0.92 daily=RUR1_9
New load.bt1861099-2 phases=1 bus=1002438727.1.2.4 model=3 kv=0.24 kw=0.04909646118721461 pf=0.92 conn=delta status=variable vmaxpu=1.5 vminpu=0.92 daily=RUR1_9
New load.bt1861236-1 phases=1 bus=1002434814.1.2.4 model=2 kv=0.24 kw=0.1824931506849315 pf=0.92 conn=delta status=variable vmaxpu=1.5 vminpu=0.92 daily=RUR1_9
New load.bt1861236-2 phases=1 bus=1002434814.1.2.4 model=3 kv=0.24 kw=0.1824931506849315 pf=0.92 conn=delta status=variable vmaxpu=1.5 vminpu=0.92 daily=RUR1_9
New load.bt1863122-1 phases=1 bus=1003361278.1.2.4 model=2 kv=0.24 kw=0.19975399543378997 pf=0.92 conn=delta status=variable vmaxpu=1.5 vminpu=0.92 daily=RES1_18
New load.bt1863122-2 phases=1 bus=1003361278.1.2.4 model=3 kv=0.24 kw=0.19975399543378997 pf=0.92 conn=delta status=variable vmaxpu=1.5 vminpu=0.92 daily=RES1_18
New load.bt1863958-1 phases=1 bus=1002432140.1.2.4 model=2 kv=0.24 kw=0.22882762557077627 pf=0.92 conn=delta status=variable vmaxpu=1.5 vminpu=0.92 daily=RUR1_19
New load.bt1863958-2 phases=1 bus=1002432140.1.2.4 model=3 kv=0.24 kw=0.22882762557077627 pf=0.92 conn=delta status=variable vmaxpu=1.5 vminpu=0.92 daily=RUR1_19
New load.bt1867590-1 phases=1 bus=1002465089.1.2.4 model=2 kv=0.24 kw=0.19786301369863016 pf=0.92 conn=delta status=variable vmaxpu=1.5 vminpu=0.92 daily=COM1_6
New load.bt1867590-2 phases=1 bus=1002465089.1.2.4 model=3 kv=0.24 kw=0.19786301369863016 pf=0.92 conn=delta status=variable vmaxpu=1.5 vminpu=0.92 daily=COM1_6
New load.bt1870670-1 phases=1 bus=1002432784.1.2.4 model=2 kv=0.24 kw=0.6189223744292238 pf=0.92 conn=delta status=variable vmaxpu=1.5 vminpu=0.92 daily=RUR1_9
New load.bt1870670-2 phases=1 bus=1002432784.1.2.4 model=3 kv=0.24 kw=0.6189223744292238 pf=0.92 conn=delta status=variable vmaxpu=1.5 vminpu=0.92 daily=RUR1_9
New load.bt1872461-1 phases=3 bus=1002434485.1.2.3.4 model=2 kv=0.22 kw=0.1919543378995434 pf=0.92 conn=delta status=variable vmaxpu=1.5 vminpu=0.92 daily=RUR1_9
New load.bt1872461-2 phases=3 bus=1002434485.1.2.3.4 model=3 kv=0.22 kw=0.1919543378995434 pf=0.92 conn=delta status=variable vmaxpu=1.5 vminpu=0.92 daily=RUR1_9
New load.bt1872789-1 phases=1 bus=1002435787.1.2.4 model=2 kv=0.24 kw=0.17537271689497716 pf=0.92 conn=delta status=variable vmaxpu=1.5 vminpu=0.92 daily=COM1_6
New load.bt1872789-2 phases=1 bus=1002435787.1.2.4 model=3 kv=0.24 kw=0.17537271689497716 pf=0.92 conn=delta status=variable vmaxpu=1.5 vminpu=0.92 daily=COM1_6
New load.bt1875697-1 phases=1 bus=1003268402.3.1.4 model=2 kv=0.22 kw=0.09286700913242009 pf=0.92 conn=delta status=variable vmaxpu=1.5 vminpu=0.92 daily=RES1_18
New load.bt1875697-2 phases=1 bus=1003268402.3.1.4 model=3 kv=0.22 kw=0.09286700913242009 pf=0.92 conn=delta status=variable vmaxpu=1.5 vminpu=0.92 daily=RES1_18
New load.bt1882046-1 phases=1 bus=1002432434.1.2.4 model=2 kv=0.24 kw=0.2041267123287671 pf=0.92 conn=delta status=variable vmaxpu=1.5 vminpu=0.92 daily=RUR1_9
New load.bt1882046-2 phases=1 bus=1002432434.1.2.4 model=3 kv=0.24 kw=0.2041267123287671 pf=0.92 conn=delta status=variable vmaxpu=1.5 vminpu=0.92 daily=RUR1_9
New load.bt1883236-1 phases=1 bus=1003239205.1.2.4 model=2 kv=0.24 kw=0.1412933789954338 pf=0.92 conn=delta status=variable vmaxpu=1.5 vminpu=0.92 daily=COM1_21
New load.bt1883236-2 phases=1 bus=1003239205.1.2.4 model=3 kv=0.24 kw=0.1412933789954338 pf=0.92 conn=delta status=variable vmaxpu=1.5 vminpu=0.92 daily=COM1_21
New load.bt1884804-1 phases=3 bus=1002443690.1.2.3.4 model=2 kv=0.22 kw=0.16523801369863014 pf=0.92 conn=delta status=variable vmaxpu=1.5 vminpu=0.92 daily=COM1_6
New load.bt1884804-2 phases=3 bus=1002443690.1.2.3.4 model=3 kv=0.22 kw=0.16523801369863014 pf=0.92 conn=delta status=variable vmaxpu=1.5 vminpu=0.92 daily=COM1_6
New load.bt1891833-1 phases=1 bus=1003256544.1.2.4 model=2 kv=0.24 kw=0.18389783105022833 pf=0.92 conn=delta status=variable vmaxpu=1.5 vminpu=0.92 daily=RES1_3
New load.bt1891833-2 phases=1 bus=1003256544.1.2.4 model=3 kv=0.24 kw=0.18389783105022833 pf=0.92 conn=delta status=variable vmaxpu=1.5 vminpu=0.92 daily=RES1_3
New load.bt1893173-1 phases=1 bus=1002433141.2.4 model=2 kv=0.1386 kw=0.15522031963470323 pf=0.92 conn=wye status=variable vmaxpu=1.5 vminpu=0.92 daily=RES1_3
New load.bt1893173-2 phases=1 bus=1002433141.2.4 model=3 kv=0.1386 kw=0.15522031963470323 pf=0.92 conn=wye status=variable vmaxpu=1.5 vminpu=0.92 daily=RES1_3
New load.bt1894201-1 phases=1 bus=1003340887.2.4 model=2 kv=0.1386 kw=0.04389440639269406 pf=0.92 conn=wye status=variable vmaxpu=1.5 vminpu=0.92 daily=RES1_3
New load.bt1894201-2 phases=1 bus=1003340887.2.4 model=3 kv=0.1386 kw=0.04389440639269406 pf=0.92 conn=wye status=variable vmaxpu=1.5 vminpu=0.92 daily=RES1_3
New load.bt1901878-1 phases=1 bus=1002442444.1.2.4 model=2 kv=0.24 kw=0.15556278538812782 pf=0.92 conn=delta status=variable vmaxpu=1.5 vminpu=0.92 daily=RUR1_9
New load.bt1901878-2 phases=1 bus=1002442444.1.2.4 model=3 kv=0.24 kw=0.15556278538812782 pf=0.92 conn=delta status=variable vmaxpu=1.5 vminpu=0.92 daily=RUR1_9
New load.bt1904252-1 phases=1 bus=1003256558.1.2.4 model=2 kv=0.24 kw=0.1702950913242009 pf=0.92 conn=delta status=variable vmaxpu=1.5 vminpu=0.92 daily=RES1_3
New load.bt1904252-2 phases=1 bus=1003256558.1.2.4 model=3 kv=0.24 kw=0.1702950913242009 pf=0.92 conn=delta status=variable vmaxpu=1.5 vminpu=0.92 daily=RES1_3
New load.bt1905281-1 phases=1 bus=1002433134.1.2.4 model=2 kv=0.24 kw=0.1437191780821918 pf=0.92 conn=delta status=variable vmaxpu=1.5 vminpu=0.92 daily=RUR1_19
New load.bt1905281-2 phases=1 bus=1002433134.1.2.4 model=3 kv=0.24 kw=0.1437191780821918 pf=0.92 conn=delta status=variable vmaxpu=1.5 vminpu=0.92 daily=RUR1_19
New load.bt1906470-1 phases=1 bus=1002432980.1.2.4 model=2 kv=0.24 kw=0.12540468036529678 pf=0.92 conn=delta status=variable vmaxpu=1.5 vminpu=0.92 daily=RES1_3
New load.bt1906470-2 phases=1 bus=1002432980.1.2.4 model=3 kv=0.24 kw=0.12540468036529678 pf=0.92 conn=delta status=variable vmaxpu=1.5 vminpu=0.92 daily=RES1_3
New load.bt1912182-1 phases=1 bus=1002434296.1.2.4 model=2 kv=0.24 kw=0.16620262557077625 pf=0.92 conn=delta status=variable vmaxpu=1.5 vminpu=0.92 daily=RUR1_9
New load.bt1912182-2 phases=1 bus=1002434296.1.2.4 model=3 kv=0.24 kw=0.16620262557077625 pf=0.92 conn=delta status=variable vmaxpu=1.5 vminpu=0.92 daily=RUR1_9
New load.bt1913394-1 phases=1 bus=1003340880.1.2.4 model=2 kv=0.24 kw=0.10329794520547946 pf=0.92 conn=delta status=variable vmaxpu=1.5 vminpu=0.92 daily=RES1_3
New load.bt1913394-2 phases=1 bus=1003340880.1.2.4 model=3 kv=0.24 kw=0.10329794520547946 pf=0.92 conn=delta status=variable vmaxpu=1.5 vminpu=0.92 daily=RES1_3
New load.bt1919196-1 phases=1 bus=1003239352.1.2.4 model=2 kv=0.22 kw=0.16437500000000002 pf=0.92 conn=delta status=variable vmaxpu=1.5 vminpu=0.92 daily=RES1_18
New load.bt1919196-2 phases=1 bus=1003239352.1.2.4 model=3 kv=0.22 kw=0.16437500000000002 pf=0.92 conn=delta status=variable vmaxpu=1.5 vminpu=0.92 daily=RES1_18
New load.bt1924211-1 phases=1 bus=1002433169.1.4 model=2 kv=0.1386 kw=0.09351997716894977 pf=0.92 conn=wye status=variable vmaxpu=1.5 vminpu=0.92 daily=RES1_3
New load.bt1924211-2 phases=1 bus=1002433169.1.4 model=3 kv=0.1386 kw=0.09351997716894977 pf=0.92 conn=wye status=variable vmaxpu=1.5 vminpu=0.92 daily=RES1_3
New load.bt1926711-1 phases=1 bus=1003238393.1.2.4 model=2 kv=0.24 kw=0.35016152968036535 pf=0.92 conn=delta status=variable vmaxpu=1.5 vminpu=0.92 daily=RUR1_9
New load.bt1926711-2 phases=1 bus=1003238393.1.2.4 model=3 kv=0.24 kw=0.35016152968036535 pf=0.92 conn=delta status=variable vmaxpu=1.5 vminpu=0.92 daily=RUR1_9
New load.bt1927599-1 phases=1 bus=1002434436.1.2.4 model=2 kv=0.24 kw=0.14723002283105024 pf=0.92 conn=delta status=variable vmaxpu=1.5 vminpu=0.92 daily=RUR1_19
New load.bt1927599-2 phases=1 bus=1002434436.1.2.4 model=3 kv=0.24 kw=0.14723002283105024 pf=0.92 conn=delta status=variable vmaxpu=1.5 vminpu=0.92 daily=RUR1_19
New load.bt1927922-1 phases=1 bus=1003239240.1.2.4 model=2 kv=0.24 kw=0.13599714611872143 pf=0.92 conn=delta status=variable vmaxpu=1.5 vminpu=0.92 daily=RES1_18
New load.bt1927922-2 phases=1 bus=1003239240.1.2.4 model=3 kv=0.24 kw=0.13599714611872143 pf=0.92 conn=delta status=variable vmaxpu=1.5 vminpu=0.92 daily=RES1_18
New load.bt1930679-1 phases=1 bus=1003239394.1.2.4 model=2 kv=0.24 kw=0.12474942922374427 pf=0.92 conn=delta status=variable vmaxpu=1.5 vminpu=0.92 daily=RES1_18